* File: sky130_fd_sc_hd__sdfrtp_4.pex.spice
* Created: Tue Sep  1 19:30:24 2020
* Program "Calibre xRC"
* Version "v2018.4_34.26"
* Nominal Temperature: 27C
* Circuit Temperature: 27C
* 
.subckt PM_SKY130_FD_SC_HD__SDFRTP_4%CLK 1 3 6 8 9 15
c31 8 0 1.72041e-20 $X=0.215 $Y=1.19
c32 6 0 9.25139e-20 $X=0.47 $Y=1.985
r33 13 15 31.2282 $w=3.55e-07 $l=2.3e-07 $layer=POLY_cond $X=0.24 $Y=1.162
+ $X2=0.47 $Y2=1.162
r34 8 9 12.183 $w=3.48e-07 $l=3.7e-07 $layer=LI1_cond $X=0.315 $Y=1.16 $X2=0.315
+ $Y2=1.53
r35 8 13 145.28 $w=1.7e-07 $l=1.7e-07 $layer=licon1_POLY $count=1 $X=0.24
+ $Y=1.16 $X2=0.24 $Y2=1.16
r36 4 15 22.9692 $w=1.5e-07 $l=1.83e-07 $layer=POLY_cond $X=0.47 $Y=1.345
+ $X2=0.47 $Y2=1.162
r37 4 6 328.17 $w=1.5e-07 $l=6.4e-07 $layer=POLY_cond $X=0.47 $Y=1.345 $X2=0.47
+ $Y2=1.985
r38 1 15 22.9692 $w=1.5e-07 $l=1.82e-07 $layer=POLY_cond $X=0.47 $Y=0.98
+ $X2=0.47 $Y2=1.162
r39 1 3 134.96 $w=1.5e-07 $l=4.2e-07 $layer=POLY_cond $X=0.47 $Y=0.98 $X2=0.47
+ $Y2=0.56
.ends

.subckt PM_SKY130_FD_SC_HD__SDFRTP_4%A_27_47# 1 2 7 9 12 16 18 20 23 25 27 31 35
+ 41 43 44 45 50 52 53 54 55 56 63 65 69 70 73 75 80 88
c263 80 0 1.04182e-19 $X=8.49 $Y=1.11
c264 70 0 1.18829e-19 $X=0.89 $Y=1.16
c265 69 0 1.34476e-19 $X=0.89 $Y=1.16
c266 54 0 1.14825e-19 $X=1.035 $Y=1.19
c267 50 0 9.88712e-20 $X=0.762 $Y=1.795
c268 45 0 7.54351e-20 $X=0.66 $Y=1.88
c269 35 0 1.24571e-19 $X=5.36 $Y=0.745
c270 27 0 6.68425e-20 $X=8.285 $Y=2.275
c271 16 0 1.63397e-19 $X=5.805 $Y=1.32
c272 7 0 1.72041e-20 $X=0.89 $Y=0.995
r273 79 80 145.28 $w=1.7e-07 $l=1.7e-07 $layer=licon1_POLY $count=1 $X=8.49
+ $Y=1.11 $X2=8.49 $Y2=1.11
r274 73 76 16.4869 $w=3.15e-07 $l=9e-08 $layer=POLY_cond $X=4.987 $Y=1.23
+ $X2=4.987 $Y2=1.32
r275 73 75 46.135 $w=3.15e-07 $l=1.65e-07 $layer=POLY_cond $X=4.987 $Y=1.23
+ $X2=4.987 $Y2=1.065
r276 70 89 7.44021 $w=3.13e-07 $l=1.65e-07 $layer=LI1_cond $X=0.817 $Y=1.16
+ $X2=0.817 $Y2=1.325
r277 70 88 8.29536 $w=3.13e-07 $l=1.65e-07 $layer=LI1_cond $X=0.817 $Y=1.16
+ $X2=0.817 $Y2=0.995
r278 69 71 48.4159 $w=2.7e-07 $l=1.65e-07 $layer=POLY_cond $X=0.89 $Y=1.16
+ $X2=0.89 $Y2=1.325
r279 69 70 145.28 $w=1.7e-07 $l=1.7e-07 $layer=licon1_POLY $count=1 $X=0.89
+ $Y=1.16 $X2=0.89 $Y2=1.16
r280 65 80 9.3 $w=1.7e-07 $l=1.7e-07 $layer=mcon $count=1 $X=8.49 $Y=1.19
+ $X2=8.49 $Y2=1.19
r281 63 73 145.28 $w=1.7e-07 $l=1.7e-07 $layer=licon1_POLY $count=1 $X=4.99
+ $Y=1.23 $X2=4.99 $Y2=1.23
r282 62 63 9.3 $w=1.7e-07 $l=1.7e-07 $layer=mcon $count=1 $X=4.99 $Y=1.19
+ $X2=4.99 $Y2=1.19
r283 58 70 9.3 $w=1.7e-07 $l=1.7e-07 $layer=mcon $count=1 $X=0.89 $Y=1.19
+ $X2=0.89 $Y2=1.19
r284 56 62 0.115467 $w=2.3e-07 $l=1.45e-07 $layer=MET1_cond $X=5.135 $Y=1.19
+ $X2=4.99 $Y2=1.19
r285 55 65 0.115467 $w=2.3e-07 $l=1.45e-07 $layer=MET1_cond $X=8.345 $Y=1.19
+ $X2=8.49 $Y2=1.19
r286 55 56 3.97276 $w=1.4e-07 $l=3.21e-06 $layer=MET1_cond $X=8.345 $Y=1.19
+ $X2=5.135 $Y2=1.19
r287 54 58 0.115467 $w=2.3e-07 $l=1.45e-07 $layer=MET1_cond $X=1.035 $Y=1.19
+ $X2=0.89 $Y2=1.19
r288 53 62 0.115467 $w=2.3e-07 $l=1.45e-07 $layer=MET1_cond $X=4.845 $Y=1.19
+ $X2=4.99 $Y2=1.19
r289 53 54 4.71534 $w=1.4e-07 $l=3.81e-06 $layer=MET1_cond $X=4.845 $Y=1.19
+ $X2=1.035 $Y2=1.19
r290 50 89 25.4279 $w=2.03e-07 $l=4.7e-07 $layer=LI1_cond $X=0.762 $Y=1.795
+ $X2=0.762 $Y2=1.325
r291 47 88 12.0416 $w=1.73e-07 $l=1.9e-07 $layer=LI1_cond $X=0.747 $Y=0.805
+ $X2=0.747 $Y2=0.995
r292 46 52 4.31308 $w=1.7e-07 $l=1.28e-07 $layer=LI1_cond $X=0.345 $Y=1.88
+ $X2=0.217 $Y2=1.88
r293 45 50 6.89401 $w=1.7e-07 $l=1.38109e-07 $layer=LI1_cond $X=0.66 $Y=1.88
+ $X2=0.762 $Y2=1.795
r294 45 46 20.5508 $w=1.68e-07 $l=3.15e-07 $layer=LI1_cond $X=0.66 $Y=1.88
+ $X2=0.345 $Y2=1.88
r295 43 47 6.81835 $w=1.7e-07 $l=1.22327e-07 $layer=LI1_cond $X=0.66 $Y=0.72
+ $X2=0.747 $Y2=0.805
r296 43 44 20.5508 $w=1.68e-07 $l=3.15e-07 $layer=LI1_cond $X=0.66 $Y=0.72
+ $X2=0.345 $Y2=0.72
r297 39 44 7.14316 $w=1.7e-07 $l=1.62019e-07 $layer=LI1_cond $X=0.22 $Y=0.635
+ $X2=0.345 $Y2=0.72
r298 39 41 5.76222 $w=2.48e-07 $l=1.25e-07 $layer=LI1_cond $X=0.22 $Y=0.635
+ $X2=0.22 $Y2=0.51
r299 33 35 148.702 $w=1.5e-07 $l=2.9e-07 $layer=POLY_cond $X=5.07 $Y=0.745
+ $X2=5.36 $Y2=0.745
r300 29 79 38.666 $w=2.85e-07 $l=1.71377e-07 $layer=POLY_cond $X=8.43 $Y=0.945
+ $X2=8.417 $Y2=1.11
r301 29 31 271.766 $w=1.5e-07 $l=5.3e-07 $layer=POLY_cond $X=8.43 $Y=0.945
+ $X2=8.43 $Y2=0.415
r302 25 79 58.9607 $w=2.85e-07 $l=3.44739e-07 $layer=POLY_cond $X=8.285 $Y=1.395
+ $X2=8.417 $Y2=1.11
r303 25 27 451.234 $w=1.5e-07 $l=8.8e-07 $layer=POLY_cond $X=8.285 $Y=1.395
+ $X2=8.285 $Y2=2.275
r304 21 23 451.234 $w=1.5e-07 $l=8.8e-07 $layer=POLY_cond $X=5.88 $Y=1.395
+ $X2=5.88 $Y2=2.275
r305 18 35 2.83073 $w=1.5e-07 $l=7.5e-08 $layer=POLY_cond $X=5.36 $Y=0.67
+ $X2=5.36 $Y2=0.745
r306 18 20 81.94 $w=1.5e-07 $l=2.55e-07 $layer=POLY_cond $X=5.36 $Y=0.67
+ $X2=5.36 $Y2=0.415
r307 17 76 20.1192 $w=1.5e-07 $l=1.58e-07 $layer=POLY_cond $X=5.145 $Y=1.32
+ $X2=4.987 $Y2=1.32
r308 16 21 26.9307 $w=1.5e-07 $l=1.06066e-07 $layer=POLY_cond $X=5.805 $Y=1.32
+ $X2=5.88 $Y2=1.395
r309 16 17 338.426 $w=1.5e-07 $l=6.6e-07 $layer=POLY_cond $X=5.805 $Y=1.32
+ $X2=5.145 $Y2=1.32
r310 14 33 2.83073 $w=1.5e-07 $l=7.5e-08 $layer=POLY_cond $X=5.07 $Y=0.82
+ $X2=5.07 $Y2=0.745
r311 14 75 125.628 $w=1.5e-07 $l=2.45e-07 $layer=POLY_cond $X=5.07 $Y=0.82
+ $X2=5.07 $Y2=1.065
r312 12 71 338.426 $w=1.5e-07 $l=6.6e-07 $layer=POLY_cond $X=0.905 $Y=1.985
+ $X2=0.905 $Y2=1.325
r313 7 69 48.4159 $w=2.7e-07 $l=1.65e-07 $layer=POLY_cond $X=0.89 $Y=0.995
+ $X2=0.89 $Y2=1.16
r314 7 9 139.78 $w=1.5e-07 $l=4.35e-07 $layer=POLY_cond $X=0.89 $Y=0.995
+ $X2=0.89 $Y2=0.56
r315 2 52 300 $w=1.7e-07 $l=5.33854e-07 $layer=licon1_PDIFF $count=2 $X=0.135
+ $Y=1.485 $X2=0.26 $Y2=1.96
r316 1 41 182 $w=1.7e-07 $l=3.31662e-07 $layer=licon1_NDIFF $count=1 $X=0.135
+ $Y=0.235 $X2=0.26 $Y2=0.51
.ends

.subckt PM_SKY130_FD_SC_HD__SDFRTP_4%A_299_66# 1 2 7 9 10 12 16 18 19 20 22 25
+ 26 27 30 34 35 41
c137 26 0 1.05347e-19 $X=3.68 $Y=0.34
c138 12 0 1.99718e-19 $X=3.825 $Y=2.215
c139 10 0 1.99654e-19 $X=3.825 $Y=1.685
r140 40 41 145.28 $w=1.7e-07 $l=1.7e-07 $layer=licon1_POLY $count=1 $X=2.385
+ $Y=1.29 $X2=2.385 $Y2=1.29
r141 38 40 7.07246 $w=3.45e-07 $l=2e-07 $layer=LI1_cond $X=2.225 $Y=1.09
+ $X2=2.225 $Y2=1.29
r142 34 35 8.79328 $w=2.48e-07 $l=1.65e-07 $layer=LI1_cond $X=2.025 $Y=2.22
+ $X2=2.025 $Y2=2.055
r143 30 31 145.28 $w=1.7e-07 $l=1.7e-07 $layer=licon1_POLY $count=1 $X=3.765
+ $Y=1.52 $X2=3.765 $Y2=1.52
r144 28 30 71.4385 $w=1.68e-07 $l=1.095e-06 $layer=LI1_cond $X=3.765 $Y=0.425
+ $X2=3.765 $Y2=1.52
r145 26 28 6.81649 $w=1.7e-07 $l=1.20208e-07 $layer=LI1_cond $X=3.68 $Y=0.34
+ $X2=3.765 $Y2=0.425
r146 26 27 38.8182 $w=1.68e-07 $l=5.95e-07 $layer=LI1_cond $X=3.68 $Y=0.34
+ $X2=3.085 $Y2=0.34
r147 24 27 6.81649 $w=1.7e-07 $l=1.20208e-07 $layer=LI1_cond $X=3 $Y=0.425
+ $X2=3.085 $Y2=0.34
r148 24 25 37.1872 $w=1.68e-07 $l=5.7e-07 $layer=LI1_cond $X=3 $Y=0.425 $X2=3
+ $Y2=0.995
r149 23 38 4.22896 $w=1.9e-07 $l=2.45e-07 $layer=LI1_cond $X=2.47 $Y=1.09
+ $X2=2.225 $Y2=1.09
r150 22 25 6.84389 $w=1.9e-07 $l=1.30767e-07 $layer=LI1_cond $X=2.915 $Y=1.09
+ $X2=3 $Y2=0.995
r151 22 23 25.9761 $w=1.88e-07 $l=4.45e-07 $layer=LI1_cond $X=2.915 $Y=1.09
+ $X2=2.47 $Y2=1.09
r152 20 40 8.97647 $w=3.45e-07 $l=2.31571e-07 $layer=LI1_cond $X=2.065 $Y=1.455
+ $X2=2.225 $Y2=1.29
r153 20 35 39.1444 $w=1.68e-07 $l=6e-07 $layer=LI1_cond $X=2.065 $Y=1.455
+ $X2=2.065 $Y2=2.055
r154 18 38 9.72464 $w=3.45e-07 $l=2.75e-07 $layer=LI1_cond $X=2.225 $Y=0.815
+ $X2=2.225 $Y2=1.09
r155 18 19 22.8342 $w=1.68e-07 $l=3.5e-07 $layer=LI1_cond $X=2.055 $Y=0.815
+ $X2=1.705 $Y2=0.815
r156 14 19 6.81649 $w=1.7e-07 $l=1.20208e-07 $layer=LI1_cond $X=1.62 $Y=0.73
+ $X2=1.705 $Y2=0.815
r157 14 16 11.0909 $w=1.68e-07 $l=1.7e-07 $layer=LI1_cond $X=1.62 $Y=0.73
+ $X2=1.62 $Y2=0.56
r158 10 31 38.9235 $w=2.69e-07 $l=1.92678e-07 $layer=POLY_cond $X=3.825 $Y=1.685
+ $X2=3.765 $Y2=1.52
r159 10 12 271.766 $w=1.5e-07 $l=5.3e-07 $layer=POLY_cond $X=3.825 $Y=1.685
+ $X2=3.825 $Y2=2.215
r160 7 41 75.1296 $w=2.47e-07 $l=4.60999e-07 $layer=POLY_cond $X=2.77 $Y=1.09
+ $X2=2.385 $Y2=1.257
r161 7 9 91.58 $w=1.5e-07 $l=2.85e-07 $layer=POLY_cond $X=2.77 $Y=1.09 $X2=2.77
+ $Y2=0.805
r162 2 34 600 $w=1.7e-07 $l=3.67083e-07 $layer=licon1_PDIFF $count=1 $X=1.77
+ $Y=1.945 $X2=1.985 $Y2=2.22
r163 1 16 182 $w=1.7e-07 $l=2.85745e-07 $layer=licon1_NDIFF $count=1 $X=1.495
+ $Y=0.33 $X2=1.62 $Y2=0.56
.ends

.subckt PM_SKY130_FD_SC_HD__SDFRTP_4%D 3 7 9 10 14
c46 14 0 1.99654e-19 $X=3.035 $Y=1.62
c47 10 0 1.99718e-19 $X=2.925 $Y=2.125
r48 15 25 6.2547 $w=3.83e-07 $l=1.65e-07 $layer=LI1_cond $X=2.927 $Y=1.62
+ $X2=2.927 $Y2=1.785
r49 14 17 47.9606 $w=3.05e-07 $l=1.65e-07 $layer=POLY_cond $X=3.052 $Y=1.62
+ $X2=3.052 $Y2=1.785
r50 14 16 47.9606 $w=3.05e-07 $l=1.65e-07 $layer=POLY_cond $X=3.052 $Y=1.62
+ $X2=3.052 $Y2=1.455
r51 14 15 145.28 $w=1.7e-07 $l=1.7e-07 $layer=licon1_POLY $count=1 $X=3.035
+ $Y=1.62 $X2=3.035 $Y2=1.62
r52 10 25 19.2074 $w=2.53e-07 $l=4.25e-07 $layer=LI1_cond $X=2.992 $Y=2.21
+ $X2=2.992 $Y2=1.785
r53 9 15 2.69402 $w=3.83e-07 $l=9e-08 $layer=LI1_cond $X=2.927 $Y=1.53 $X2=2.927
+ $Y2=1.62
r54 7 16 333.298 $w=1.5e-07 $l=6.5e-07 $layer=POLY_cond $X=3.13 $Y=0.805
+ $X2=3.13 $Y2=1.455
r55 3 17 220.489 $w=1.5e-07 $l=4.3e-07 $layer=POLY_cond $X=3.025 $Y=2.215
+ $X2=3.025 $Y2=1.785
.ends

.subckt PM_SKY130_FD_SC_HD__SDFRTP_4%SCE 4 5 6 7 11 13 17 19 21 22 24 26 27 31
+ 32
c99 32 0 4.13626e-20 $X=1.645 $Y=1.31
c100 31 0 2.66381e-19 $X=1.645 $Y=1.31
c101 19 0 1.79332e-19 $X=3.835 $Y=0.255
r102 31 33 43.918 $w=4.39e-07 $l=4e-07 $layer=POLY_cond $X=1.652 $Y=1.31
+ $X2=1.652 $Y2=1.71
r103 31 32 145.28 $w=1.7e-07 $l=1.7e-07 $layer=licon1_POLY $count=1 $X=1.645
+ $Y=1.31 $X2=1.645 $Y2=1.31
r104 26 32 10.3485 $w=2.43e-07 $l=2.2e-07 $layer=LI1_cond $X=1.607 $Y=1.53
+ $X2=1.607 $Y2=1.31
r105 25 26 21.4025 $w=2.43e-07 $l=4.55e-07 $layer=LI1_cond $X=1.607 $Y=1.985
+ $X2=1.607 $Y2=1.53
r106 24 27 4.04442 $w=2.63e-07 $l=9.3e-08 $layer=LI1_cond $X=1.597 $Y=2.117
+ $X2=1.597 $Y2=2.21
r107 24 25 5.82496 $w=2.63e-07 $l=1.32e-07 $layer=LI1_cond $X=1.597 $Y=2.117
+ $X2=1.597 $Y2=1.985
r108 19 21 27.474 $w=5e-07 $l=2.85e-07 $layer=POLY_cond $X=3.835 $Y=0.255
+ $X2=3.835 $Y2=0.54
r109 15 17 220.489 $w=1.5e-07 $l=4.3e-07 $layer=POLY_cond $X=2.615 $Y=1.785
+ $X2=2.615 $Y2=2.215
r110 14 22 20.4101 $w=1.5e-07 $l=7.5e-08 $layer=POLY_cond $X=2.27 $Y=1.71
+ $X2=2.195 $Y2=1.71
r111 13 15 26.9307 $w=1.5e-07 $l=1.06066e-07 $layer=POLY_cond $X=2.54 $Y=1.71
+ $X2=2.615 $Y2=1.785
r112 13 14 138.447 $w=1.5e-07 $l=2.7e-07 $layer=POLY_cond $X=2.54 $Y=1.71
+ $X2=2.27 $Y2=1.71
r113 9 22 5.30422 $w=1.5e-07 $l=7.5e-08 $layer=POLY_cond $X=2.195 $Y=1.785
+ $X2=2.195 $Y2=1.71
r114 9 11 220.489 $w=1.5e-07 $l=4.3e-07 $layer=POLY_cond $X=2.195 $Y=1.785
+ $X2=2.195 $Y2=2.215
r115 8 33 28.1521 $w=1.5e-07 $l=2.53e-07 $layer=POLY_cond $X=1.905 $Y=1.71
+ $X2=1.652 $Y2=1.71
r116 7 22 20.4101 $w=1.5e-07 $l=7.5e-08 $layer=POLY_cond $X=2.12 $Y=1.71
+ $X2=2.195 $Y2=1.71
r117 7 8 110.245 $w=1.5e-07 $l=2.15e-07 $layer=POLY_cond $X=2.12 $Y=1.71
+ $X2=1.905 $Y2=1.71
r118 5 19 38.6381 $w=1.5e-07 $l=2.85044e-07 $layer=POLY_cond $X=3.585 $Y=0.18
+ $X2=3.835 $Y2=0.255
r119 5 6 861.447 $w=1.5e-07 $l=1.68e-06 $layer=POLY_cond $X=3.585 $Y=0.18
+ $X2=1.905 $Y2=0.18
r120 2 31 40.4229 $w=4.39e-07 $l=2.47091e-07 $layer=POLY_cond $X=1.83 $Y=1.145
+ $X2=1.652 $Y2=1.31
r121 2 4 310.223 $w=1.5e-07 $l=6.05e-07 $layer=POLY_cond $X=1.83 $Y=1.145
+ $X2=1.83 $Y2=0.54
r122 1 6 26.9307 $w=1.5e-07 $l=1.06066e-07 $layer=POLY_cond $X=1.83 $Y=0.255
+ $X2=1.905 $Y2=0.18
r123 1 4 146.138 $w=1.5e-07 $l=2.85e-07 $layer=POLY_cond $X=1.83 $Y=0.255
+ $X2=1.83 $Y2=0.54
.ends

.subckt PM_SKY130_FD_SC_HD__SDFRTP_4%SCD 3 7 13 16
c44 13 0 4.16547e-19 $X=4.165 $Y=1.53
c45 7 0 1.05347e-19 $X=4.385 $Y=0.54
r46 16 19 47.9795 $w=3e-07 $l=1.65e-07 $layer=POLY_cond $X=4.325 $Y=1.535
+ $X2=4.325 $Y2=1.7
r47 16 18 42.5162 $w=3e-07 $l=1.65e-07 $layer=POLY_cond $X=4.325 $Y=1.535
+ $X2=4.325 $Y2=1.37
r48 16 17 145.28 $w=1.7e-07 $l=1.7e-07 $layer=licon1_POLY $count=1 $X=4.31
+ $Y=1.535 $X2=4.31 $Y2=1.535
r49 13 17 0.153659 $w=3.73e-07 $l=5e-09 $layer=LI1_cond $X=4.207 $Y=1.53
+ $X2=4.207 $Y2=1.535
r50 7 18 322.629 $w=1.8e-07 $l=8.3e-07 $layer=POLY_cond $X=4.385 $Y=0.54
+ $X2=4.385 $Y2=1.37
r51 3 19 264.074 $w=1.5e-07 $l=5.15e-07 $layer=POLY_cond $X=4.255 $Y=2.215
+ $X2=4.255 $Y2=1.7
.ends

.subckt PM_SKY130_FD_SC_HD__SDFRTP_4%A_193_47# 1 2 9 13 14 16 19 23 26 29 31 32
+ 36 37 39 40 44 46 51 54 55 56 57 58 67 71 72 76 88 91
c270 88 0 1.95569e-19 $X=1.23 $Y=1.815
c271 76 0 1.25175e-19 $X=5.8 $Y=0.705
c272 71 0 1.38309e-19 $X=5.33 $Y=1.74
c273 56 0 9.25139e-20 $X=1.27 $Y=1.87
c274 55 0 3.51014e-19 $X=5.265 $Y=1.87
c275 54 0 6.24992e-20 $X=8.705 $Y=1.74
c276 51 0 8.14383e-20 $X=8.69 $Y=1.805
c277 46 0 8.4081e-20 $X=8.415 $Y=1.58
c278 36 0 1.25072e-19 $X=8.01 $Y=0.87
c279 32 0 4.31332e-21 $X=5.8 $Y=0.87
r280 72 91 8.79328 $w=2.48e-07 $l=1.65e-07 $layer=LI1_cond $X=5.37 $Y=1.74
+ $X2=5.37 $Y2=1.575
r281 71 74 40.9657 $w=3.3e-07 $l=1.35e-07 $layer=POLY_cond $X=5.33 $Y=1.74
+ $X2=5.33 $Y2=1.875
r282 71 72 145.28 $w=1.7e-07 $l=1.7e-07 $layer=licon1_POLY $count=1 $X=5.33
+ $Y=1.74 $X2=5.33 $Y2=1.74
r283 67 68 9.3 $w=1.7e-07 $l=1.7e-07 $layer=mcon $count=1 $X=8.53 $Y=1.87
+ $X2=8.53 $Y2=1.87
r284 64 72 9.3 $w=1.7e-07 $l=1.7e-07 $layer=mcon $count=1 $X=5.41 $Y=1.87
+ $X2=5.41 $Y2=1.87
r285 61 88 7.17647 $w=1.68e-07 $l=1.1e-07 $layer=LI1_cond $X=1.12 $Y=1.815
+ $X2=1.23 $Y2=1.815
r286 60 61 9.3 $w=1.7e-07 $l=1.7e-07 $layer=mcon $count=1 $X=1.12 $Y=1.87
+ $X2=1.12 $Y2=1.87
r287 58 64 0.115467 $w=2.3e-07 $l=1.45e-07 $layer=MET1_cond $X=5.555 $Y=1.87
+ $X2=5.41 $Y2=1.87
r288 57 67 0.115467 $w=2.3e-07 $l=1.45e-07 $layer=MET1_cond $X=8.385 $Y=1.87
+ $X2=8.53 $Y2=1.87
r289 57 58 3.50247 $w=1.4e-07 $l=2.83e-06 $layer=MET1_cond $X=8.385 $Y=1.87
+ $X2=5.555 $Y2=1.87
r290 56 60 0.118675 $w=2.3e-07 $l=1.5e-07 $layer=MET1_cond $X=1.27 $Y=1.87
+ $X2=1.12 $Y2=1.87
r291 55 64 0.115467 $w=2.3e-07 $l=1.45e-07 $layer=MET1_cond $X=5.265 $Y=1.87
+ $X2=5.41 $Y2=1.87
r292 55 56 4.9443 $w=1.4e-07 $l=3.995e-06 $layer=MET1_cond $X=5.265 $Y=1.87
+ $X2=1.27 $Y2=1.87
r293 54 84 48.4159 $w=2.7e-07 $l=1.65e-07 $layer=POLY_cond $X=8.705 $Y=1.74
+ $X2=8.705 $Y2=1.905
r294 53 54 145.28 $w=1.7e-07 $l=1.7e-07 $layer=licon1_POLY $count=1 $X=8.705
+ $Y=1.74 $X2=8.705 $Y2=1.74
r295 51 68 6.14636 $w=2.98e-07 $l=1.6e-07 $layer=LI1_cond $X=8.69 $Y=1.805
+ $X2=8.53 $Y2=1.805
r296 51 53 0.61 $w=3e-07 $l=1.5e-08 $layer=LI1_cond $X=8.69 $Y=1.805 $X2=8.705
+ $Y2=1.805
r297 49 68 0.384148 $w=2.98e-07 $l=1e-08 $layer=LI1_cond $X=8.52 $Y=1.805
+ $X2=8.53 $Y2=1.805
r298 46 49 11.8831 $w=2.08e-07 $l=2.25e-07 $layer=LI1_cond $X=8.415 $Y=1.58
+ $X2=8.415 $Y2=1.805
r299 42 44 4.53993 $w=3.28e-07 $l=1.3e-07 $layer=LI1_cond $X=1.1 $Y=0.51
+ $X2=1.23 $Y2=0.51
r300 39 46 1.9771 $w=1.7e-07 $l=1.05e-07 $layer=LI1_cond $X=8.31 $Y=1.58
+ $X2=8.415 $Y2=1.58
r301 39 40 14.0267 $w=1.68e-07 $l=2.15e-07 $layer=LI1_cond $X=8.31 $Y=1.58
+ $X2=8.095 $Y2=1.58
r302 37 78 21.8577 $w=3.3e-07 $l=1.25e-07 $layer=POLY_cond $X=8.01 $Y=0.87
+ $X2=7.885 $Y2=0.87
r303 36 37 145.28 $w=1.7e-07 $l=1.7e-07 $layer=licon1_POLY $count=1 $X=8.01
+ $Y=0.87 $X2=8.01 $Y2=0.87
r304 34 40 6.91519 $w=1.7e-07 $l=1.41244e-07 $layer=LI1_cond $X=7.99 $Y=1.495
+ $X2=8.095 $Y2=1.58
r305 34 36 33.0087 $w=2.08e-07 $l=6.25e-07 $layer=LI1_cond $X=7.99 $Y=1.495
+ $X2=7.99 $Y2=0.87
r306 32 76 48.4159 $w=2.7e-07 $l=1.65e-07 $layer=POLY_cond $X=5.8 $Y=0.87
+ $X2=5.8 $Y2=0.705
r307 31 32 145.28 $w=1.7e-07 $l=1.7e-07 $layer=licon1_POLY $count=1 $X=5.8
+ $Y=0.87 $X2=5.8 $Y2=0.87
r308 29 31 10.6514 $w=3.28e-07 $l=3.05e-07 $layer=LI1_cond $X=5.495 $Y=0.87
+ $X2=5.8 $Y2=0.87
r309 27 29 7.76618 $w=3.3e-07 $l=2.03101e-07 $layer=LI1_cond $X=5.41 $Y=1.035
+ $X2=5.495 $Y2=0.87
r310 27 91 35.2299 $w=1.68e-07 $l=5.4e-07 $layer=LI1_cond $X=5.41 $Y=1.035
+ $X2=5.41 $Y2=1.575
r311 26 88 0.716491 $w=1.7e-07 $l=8.5e-08 $layer=LI1_cond $X=1.23 $Y=1.73
+ $X2=1.23 $Y2=1.815
r312 25 44 4.62375 $w=1.7e-07 $l=1.65e-07 $layer=LI1_cond $X=1.23 $Y=0.675
+ $X2=1.23 $Y2=0.51
r313 25 26 68.8289 $w=1.68e-07 $l=1.055e-06 $layer=LI1_cond $X=1.23 $Y=0.675
+ $X2=1.23 $Y2=1.73
r314 21 61 0.716491 $w=1.7e-07 $l=8.5e-08 $layer=LI1_cond $X=1.12 $Y=1.9
+ $X2=1.12 $Y2=1.815
r315 21 23 3.91444 $w=1.68e-07 $l=6e-08 $layer=LI1_cond $X=1.12 $Y=1.9 $X2=1.12
+ $Y2=1.96
r316 19 84 189.723 $w=1.5e-07 $l=3.7e-07 $layer=POLY_cond $X=8.715 $Y=2.275
+ $X2=8.715 $Y2=1.905
r317 14 78 21.2229 $w=1.5e-07 $l=1.65e-07 $layer=POLY_cond $X=7.885 $Y=0.705
+ $X2=7.885 $Y2=0.87
r318 14 16 93.1867 $w=1.5e-07 $l=2.9e-07 $layer=POLY_cond $X=7.885 $Y=0.705
+ $X2=7.885 $Y2=0.415
r319 13 76 93.1867 $w=1.5e-07 $l=2.9e-07 $layer=POLY_cond $X=5.86 $Y=0.415
+ $X2=5.86 $Y2=0.705
r320 9 74 205.106 $w=1.5e-07 $l=4e-07 $layer=POLY_cond $X=5.32 $Y=2.275 $X2=5.32
+ $Y2=1.875
r321 2 23 300 $w=1.7e-07 $l=5.40486e-07 $layer=licon1_PDIFF $count=2 $X=0.98
+ $Y=1.485 $X2=1.12 $Y2=1.96
r322 1 42 182 $w=1.7e-07 $l=3.35783e-07 $layer=licon1_NDIFF $count=1 $X=0.965
+ $Y=0.235 $X2=1.1 $Y2=0.51
.ends

.subckt PM_SKY130_FD_SC_HD__SDFRTP_4%A_1245_303# 1 2 9 13 15 18 21 24 28 31 34
+ 35 36
c112 36 0 6.68425e-20 $X=7.585 $Y=1.595
c113 34 0 1.40308e-19 $X=7.585 $Y=0.835
c114 1 0 1.64006e-19 $X=7.485 $Y=0.235
r115 35 37 10.6379 $w=2.58e-07 $l=2.4e-07 $layer=LI1_cond $X=7.585 $Y=1.68
+ $X2=7.585 $Y2=1.92
r116 35 36 5.14764 $w=2.58e-07 $l=8.5e-08 $layer=LI1_cond $X=7.585 $Y=1.68
+ $X2=7.585 $Y2=1.595
r117 34 36 49.5829 $w=1.68e-07 $l=7.6e-07 $layer=LI1_cond $X=7.63 $Y=0.835
+ $X2=7.63 $Y2=1.595
r118 31 33 3.51899 $w=3.28e-07 $l=8.5e-08 $layer=LI1_cond $X=7.62 $Y=0.36
+ $X2=7.62 $Y2=0.445
r119 26 28 19.246 $w=1.68e-07 $l=2.95e-07 $layer=LI1_cond $X=8.055 $Y=2.005
+ $X2=8.055 $Y2=2.3
r120 25 37 3.22376 $w=1.7e-07 $l=1.3e-07 $layer=LI1_cond $X=7.715 $Y=1.92
+ $X2=7.585 $Y2=1.92
r121 24 26 6.81649 $w=1.7e-07 $l=1.20208e-07 $layer=LI1_cond $X=7.97 $Y=1.92
+ $X2=8.055 $Y2=2.005
r122 24 25 16.6364 $w=1.68e-07 $l=2.55e-07 $layer=LI1_cond $X=7.97 $Y=1.92
+ $X2=7.715 $Y2=1.92
r123 21 34 7.14225 $w=2.58e-07 $l=1.3e-07 $layer=LI1_cond $X=7.585 $Y=0.705
+ $X2=7.585 $Y2=0.835
r124 21 33 11.5244 $w=2.58e-07 $l=2.6e-07 $layer=LI1_cond $X=7.585 $Y=0.705
+ $X2=7.585 $Y2=0.445
r125 18 41 48.1856 $w=3.6e-07 $l=1.75e-07 $layer=POLY_cond $X=6.405 $Y=1.68
+ $X2=6.405 $Y2=1.855
r126 18 40 46.5827 $w=3.6e-07 $l=1.65e-07 $layer=POLY_cond $X=6.405 $Y=1.68
+ $X2=6.405 $Y2=1.515
r127 17 18 145.28 $w=1.7e-07 $l=1.7e-07 $layer=licon1_POLY $count=1 $X=6.45
+ $Y=1.68 $X2=6.45 $Y2=1.68
r128 15 35 3.22376 $w=1.7e-07 $l=1.3e-07 $layer=LI1_cond $X=7.455 $Y=1.68
+ $X2=7.585 $Y2=1.68
r129 15 17 65.5668 $w=1.68e-07 $l=1.005e-06 $layer=LI1_cond $X=7.455 $Y=1.68
+ $X2=6.45 $Y2=1.68
r130 13 40 548.66 $w=1.5e-07 $l=1.07e-06 $layer=POLY_cond $X=6.39 $Y=0.445
+ $X2=6.39 $Y2=1.515
r131 9 41 215.362 $w=1.5e-07 $l=4.2e-07 $layer=POLY_cond $X=6.3 $Y=2.275 $X2=6.3
+ $Y2=1.855
r132 2 28 600 $w=1.7e-07 $l=7.35102e-07 $layer=licon1_PDIFF $count=1 $X=7.885
+ $Y=1.645 $X2=8.055 $Y2=2.3
r133 1 31 182 $w=1.7e-07 $l=1.8735e-07 $layer=licon1_NDIFF $count=1 $X=7.485
+ $Y=0.235 $X2=7.62 $Y2=0.36
.ends

.subckt PM_SKY130_FD_SC_HD__SDFRTP_4%RESET_B 3 6 8 9 12 14 16 17 19 20 24 27 29
+ 30 31 38 40 48
c169 48 0 1.35593e-19 $X=9.97 $Y=1.065
c170 38 0 1.40308e-19 $X=6.81 $Y=0.96
c171 31 0 2.81108e-19 $X=9.775 $Y=0.965
c172 29 0 1.64006e-19 $X=9.63 $Y=0.85
c173 20 0 4.4557e-20 $X=10.03 $Y=0.85
c174 12 0 4.33854e-20 $X=9.655 $Y=0.445
c175 6 0 1.1086e-19 $X=6.87 $Y=2.275
r176 43 44 145.28 $w=1.7e-07 $l=1.7e-07 $layer=licon1_POLY $count=1 $X=9.69
+ $Y=1.15 $X2=9.69 $Y2=1.15
r177 38 41 48.4159 $w=2.7e-07 $l=1.65e-07 $layer=POLY_cond $X=6.81 $Y=0.96
+ $X2=6.81 $Y2=1.125
r178 38 40 57.3029 $w=2.7e-07 $l=2.05e-07 $layer=POLY_cond $X=6.81 $Y=0.96
+ $X2=6.81 $Y2=0.755
r179 31 35 0.153245 $w=2.08e-07 $l=2.55e-07 $layer=MET1_cond $X=9.775 $Y=0.85
+ $X2=10.03 $Y2=0.85
r180 29 31 0.100553 $w=2.08e-07 $l=1.45e-07 $layer=MET1_cond $X=9.63 $Y=0.85
+ $X2=9.775 $Y2=0.85
r181 29 30 3.13737 $w=1.4e-07 $l=2.535e-06 $layer=MET1_cond $X=9.63 $Y=0.85
+ $X2=7.095 $Y2=0.85
r182 27 38 145.28 $w=1.7e-07 $l=1.7e-07 $layer=licon1_POLY $count=1 $X=6.81
+ $Y=0.96 $X2=6.81 $Y2=0.96
r183 26 27 4.65 $w=1.7e-07 $l=3.4e-07 $layer=mcon $count=2 $X=6.95 $Y=0.85
+ $X2=6.95 $Y2=0.85
r184 24 30 0.0850015 $w=2.3e-07 $l=1.15e-07 $layer=MET1_cond $X=6.98 $Y=0.85
+ $X2=7.095 $Y2=0.85
r185 24 26 0.0192481 $w=2.3e-07 $l=3e-08 $layer=MET1_cond $X=6.98 $Y=0.85
+ $X2=6.95 $Y2=0.85
r186 20 48 8.54397 $w=2.88e-07 $l=2.15e-07 $layer=LI1_cond $X=9.97 $Y=0.85
+ $X2=9.97 $Y2=1.065
r187 20 35 4.65 $w=1.7e-07 $l=3.4e-07 $layer=mcon $count=2 $X=10.03 $Y=0.85
+ $X2=10.03 $Y2=0.85
r188 19 48 2.95929 $w=2.9e-07 $l=1.05e-07 $layer=LI1_cond $X=9.97 $Y=1.17
+ $X2=9.97 $Y2=1.065
r189 19 44 6.38319 $w=3.78e-07 $l=1.35e-07 $layer=LI1_cond $X=9.825 $Y=1.17
+ $X2=9.69 $Y2=1.17
r190 17 18 59.8102 $w=1.37e-07 $l=1.7e-07 $layer=POLY_cond $X=9.485 $Y=1.915
+ $X2=9.655 $Y2=1.915
r191 14 18 0.6158 $w=1.5e-07 $l=7.5e-08 $layer=POLY_cond $X=9.655 $Y=1.99
+ $X2=9.655 $Y2=1.915
r192 14 16 91.58 $w=1.5e-07 $l=2.85e-07 $layer=POLY_cond $X=9.655 $Y=1.99
+ $X2=9.655 $Y2=2.275
r193 10 43 38.8259 $w=2.74e-07 $l=1.83016e-07 $layer=POLY_cond $X=9.655 $Y=0.985
+ $X2=9.617 $Y2=1.15
r194 10 12 276.894 $w=1.5e-07 $l=5.4e-07 $layer=POLY_cond $X=9.655 $Y=0.985
+ $X2=9.655 $Y2=0.445
r195 9 17 0.6158 $w=1.5e-07 $l=7.5e-08 $layer=POLY_cond $X=9.485 $Y=1.84
+ $X2=9.485 $Y2=1.915
r196 8 43 59.9354 $w=2.74e-07 $l=3.44739e-07 $layer=POLY_cond $X=9.485 $Y=1.435
+ $X2=9.617 $Y2=1.15
r197 8 9 207.67 $w=1.5e-07 $l=4.05e-07 $layer=POLY_cond $X=9.485 $Y=1.435
+ $X2=9.485 $Y2=1.84
r198 6 41 589.681 $w=1.5e-07 $l=1.15e-06 $layer=POLY_cond $X=6.87 $Y=2.275
+ $X2=6.87 $Y2=1.125
r199 3 40 99.6133 $w=1.5e-07 $l=3.1e-07 $layer=POLY_cond $X=6.75 $Y=0.445
+ $X2=6.75 $Y2=0.755
.ends

.subckt PM_SKY130_FD_SC_HD__SDFRTP_4%A_1079_413# 1 2 9 11 13 15 16 22 23 25 26
+ 29 30 32 34 35
c139 34 0 1.1086e-19 $X=7.29 $Y=1.17
c140 32 0 1.87801e-19 $X=6.25 $Y=1.3
c141 29 0 1.38309e-19 $X=5.67 $Y=2.33
c142 11 0 8.4081e-20 $X=7.735 $Y=1.495
c143 9 0 1.25072e-19 $X=7.41 $Y=0.555
r144 34 37 8.48128 $w=1.68e-07 $l=1.3e-07 $layer=LI1_cond $X=7.29 $Y=1.17
+ $X2=7.29 $Y2=1.3
r145 34 35 145.28 $w=1.7e-07 $l=1.7e-07 $layer=licon1_POLY $count=1 $X=7.29
+ $Y=1.17 $X2=7.29 $Y2=1.17
r146 29 30 9.47152 $w=3.63e-07 $l=1.95e-07 $layer=LI1_cond $X=5.652 $Y=2.33
+ $X2=5.652 $Y2=2.135
r147 27 32 5.16603 $w=1.7e-07 $l=8.5e-08 $layer=LI1_cond $X=6.335 $Y=1.3
+ $X2=6.25 $Y2=1.3
r148 26 37 0.716491 $w=1.7e-07 $l=8.5e-08 $layer=LI1_cond $X=7.205 $Y=1.3
+ $X2=7.29 $Y2=1.3
r149 26 27 56.7594 $w=1.68e-07 $l=8.7e-07 $layer=LI1_cond $X=7.205 $Y=1.3
+ $X2=6.335 $Y2=1.3
r150 25 32 1.34256 $w=1.7e-07 $l=8.5e-08 $layer=LI1_cond $X=6.25 $Y=1.215
+ $X2=6.25 $Y2=1.3
r151 24 25 48.2781 $w=1.68e-07 $l=7.4e-07 $layer=LI1_cond $X=6.25 $Y=0.475
+ $X2=6.25 $Y2=1.215
r152 22 32 5.16603 $w=1.7e-07 $l=8.5e-08 $layer=LI1_cond $X=6.165 $Y=1.3
+ $X2=6.25 $Y2=1.3
r153 22 23 21.5294 $w=1.68e-07 $l=3.3e-07 $layer=LI1_cond $X=6.165 $Y=1.3
+ $X2=5.835 $Y2=1.3
r154 20 23 6.81649 $w=1.7e-07 $l=1.20208e-07 $layer=LI1_cond $X=5.75 $Y=1.385
+ $X2=5.835 $Y2=1.3
r155 20 30 48.9305 $w=1.68e-07 $l=7.5e-07 $layer=LI1_cond $X=5.75 $Y=1.385
+ $X2=5.75 $Y2=2.135
r156 16 24 6.81649 $w=1.7e-07 $l=1.20208e-07 $layer=LI1_cond $X=6.165 $Y=0.39
+ $X2=6.25 $Y2=0.475
r157 16 18 33.5989 $w=1.68e-07 $l=5.15e-07 $layer=LI1_cond $X=6.165 $Y=0.39
+ $X2=5.65 $Y2=0.39
r158 13 15 159.06 $w=1.5e-07 $l=4.95e-07 $layer=POLY_cond $X=7.81 $Y=1.57
+ $X2=7.81 $Y2=2.065
r159 12 35 61.4314 $w=2.55e-07 $l=3.99061e-07 $layer=POLY_cond $X=7.485 $Y=1.495
+ $X2=7.32 $Y2=1.17
r160 11 13 26.9307 $w=1.5e-07 $l=1.06066e-07 $layer=POLY_cond $X=7.735 $Y=1.495
+ $X2=7.81 $Y2=1.57
r161 11 12 128.191 $w=1.5e-07 $l=2.5e-07 $layer=POLY_cond $X=7.735 $Y=1.495
+ $X2=7.485 $Y2=1.495
r162 7 35 39.2931 $w=2.55e-07 $l=2.05122e-07 $layer=POLY_cond $X=7.41 $Y=1.005
+ $X2=7.32 $Y2=1.17
r163 7 9 230.745 $w=1.5e-07 $l=4.5e-07 $layer=POLY_cond $X=7.41 $Y=1.005
+ $X2=7.41 $Y2=0.555
r164 2 29 600 $w=1.7e-07 $l=3.85357e-07 $layer=licon1_PDIFF $count=1 $X=5.395
+ $Y=2.065 $X2=5.67 $Y2=2.33
r165 1 18 182 $w=1.7e-07 $l=2.82046e-07 $layer=licon1_NDIFF $count=1 $X=5.435
+ $Y=0.235 $X2=5.65 $Y2=0.39
.ends

.subckt PM_SKY130_FD_SC_HD__SDFRTP_4%A_1767_21# 1 2 9 13 15 17 20 22 24 27 29 31
+ 34 36 38 41 45 48 49 51 52 53 58 60 61 63 65 68 71 73 80
c190 80 0 1.8015e-19 $X=12.285 $Y=1.16
c191 73 0 2.28902e-19 $X=9.125 $Y=0.98
c192 63 0 1.42269e-19 $X=10.43 $Y=0.995
c193 48 0 1.85044e-19 $X=9.485 $Y=0.78
c194 13 0 1.58056e-19 $X=9.125 $Y=2.275
r195 79 80 73.4417 $w=3.3e-07 $l=4.2e-07 $layer=POLY_cond $X=11.865 $Y=1.16
+ $X2=12.285 $Y2=1.16
r196 78 79 75.1904 $w=3.3e-07 $l=4.3e-07 $layer=POLY_cond $X=11.435 $Y=1.16
+ $X2=11.865 $Y2=1.16
r197 77 78 73.4417 $w=3.3e-07 $l=4.2e-07 $layer=POLY_cond $X=11.015 $Y=1.16
+ $X2=11.435 $Y2=1.16
r198 69 77 13.9889 $w=3.3e-07 $l=8e-08 $layer=POLY_cond $X=10.935 $Y=1.16
+ $X2=11.015 $Y2=1.16
r199 68 69 145.28 $w=1.7e-07 $l=1.7e-07 $layer=licon1_POLY $count=1 $X=10.935
+ $Y=1.16 $X2=10.935 $Y2=1.16
r200 66 71 0.89609 $w=3.3e-07 $l=2.70185e-07 $layer=LI1_cond $X=10.545 $Y=1.16
+ $X2=10.345 $Y2=0.995
r201 66 68 13.6198 $w=3.28e-07 $l=3.9e-07 $layer=LI1_cond $X=10.545 $Y=1.16
+ $X2=10.935 $Y2=1.16
r202 64 71 8.61065 $w=1.7e-07 $l=3.8321e-07 $layer=LI1_cond $X=10.46 $Y=1.325
+ $X2=10.345 $Y2=0.995
r203 64 65 38.492 $w=1.68e-07 $l=5.9e-07 $layer=LI1_cond $X=10.46 $Y=1.325
+ $X2=10.46 $Y2=1.915
r204 63 71 8.61065 $w=1.7e-07 $l=8.5e-08 $layer=LI1_cond $X=10.43 $Y=0.995
+ $X2=10.345 $Y2=0.995
r205 62 63 34.5775 $w=1.68e-07 $l=5.3e-07 $layer=LI1_cond $X=10.43 $Y=0.465
+ $X2=10.43 $Y2=0.995
r206 60 65 6.81649 $w=1.7e-07 $l=1.20208e-07 $layer=LI1_cond $X=10.375 $Y=2
+ $X2=10.46 $Y2=1.915
r207 60 61 27.7273 $w=1.68e-07 $l=4.25e-07 $layer=LI1_cond $X=10.375 $Y=2
+ $X2=9.95 $Y2=2
r208 56 61 6.81649 $w=1.7e-07 $l=1.20208e-07 $layer=LI1_cond $X=9.865 $Y=2.085
+ $X2=9.95 $Y2=2
r209 56 58 8.15508 $w=1.68e-07 $l=1.25e-07 $layer=LI1_cond $X=9.865 $Y=2.085
+ $X2=9.865 $Y2=2.21
r210 53 55 39.4706 $w=1.68e-07 $l=6.05e-07 $layer=LI1_cond $X=9.655 $Y=0.38
+ $X2=10.26 $Y2=0.38
r211 52 62 6.81649 $w=1.7e-07 $l=1.20208e-07 $layer=LI1_cond $X=10.345 $Y=0.38
+ $X2=10.43 $Y2=0.465
r212 52 55 5.54545 $w=1.68e-07 $l=8.5e-08 $layer=LI1_cond $X=10.345 $Y=0.38
+ $X2=10.26 $Y2=0.38
r213 50 53 6.81649 $w=1.7e-07 $l=1.20208e-07 $layer=LI1_cond $X=9.57 $Y=0.465
+ $X2=9.655 $Y2=0.38
r214 50 51 15.0053 $w=1.68e-07 $l=2.3e-07 $layer=LI1_cond $X=9.57 $Y=0.465
+ $X2=9.57 $Y2=0.695
r215 48 51 6.81649 $w=1.7e-07 $l=1.20208e-07 $layer=LI1_cond $X=9.485 $Y=0.78
+ $X2=9.57 $Y2=0.695
r216 48 49 12.3957 $w=1.68e-07 $l=1.9e-07 $layer=LI1_cond $X=9.485 $Y=0.78
+ $X2=9.295 $Y2=0.78
r217 46 73 16.1937 $w=2.53e-07 $l=8.5e-08 $layer=POLY_cond $X=9.21 $Y=0.98
+ $X2=9.125 $Y2=0.98
r218 45 46 145.28 $w=1.7e-07 $l=1.7e-07 $layer=licon1_POLY $count=1 $X=9.21
+ $Y=0.98 $X2=9.21 $Y2=0.98
r219 43 49 6.81649 $w=1.7e-07 $l=1.20208e-07 $layer=LI1_cond $X=9.21 $Y=0.865
+ $X2=9.295 $Y2=0.78
r220 43 45 7.50267 $w=1.68e-07 $l=1.15e-07 $layer=LI1_cond $X=9.21 $Y=0.865
+ $X2=9.21 $Y2=0.98
r221 39 80 21.2229 $w=1.5e-07 $l=1.65e-07 $layer=POLY_cond $X=12.285 $Y=1.325
+ $X2=12.285 $Y2=1.16
r222 39 41 338.426 $w=1.5e-07 $l=6.6e-07 $layer=POLY_cond $X=12.285 $Y=1.325
+ $X2=12.285 $Y2=1.985
r223 36 80 21.2229 $w=1.5e-07 $l=1.65e-07 $layer=POLY_cond $X=12.285 $Y=0.995
+ $X2=12.285 $Y2=1.16
r224 36 38 139.78 $w=1.5e-07 $l=4.35e-07 $layer=POLY_cond $X=12.285 $Y=0.995
+ $X2=12.285 $Y2=0.56
r225 32 79 21.2229 $w=1.5e-07 $l=1.65e-07 $layer=POLY_cond $X=11.865 $Y=1.325
+ $X2=11.865 $Y2=1.16
r226 32 34 338.426 $w=1.5e-07 $l=6.6e-07 $layer=POLY_cond $X=11.865 $Y=1.325
+ $X2=11.865 $Y2=1.985
r227 29 79 21.2229 $w=1.5e-07 $l=1.65e-07 $layer=POLY_cond $X=11.865 $Y=0.995
+ $X2=11.865 $Y2=1.16
r228 29 31 139.78 $w=1.5e-07 $l=4.35e-07 $layer=POLY_cond $X=11.865 $Y=0.995
+ $X2=11.865 $Y2=0.56
r229 25 78 21.2229 $w=1.5e-07 $l=1.65e-07 $layer=POLY_cond $X=11.435 $Y=1.325
+ $X2=11.435 $Y2=1.16
r230 25 27 338.426 $w=1.5e-07 $l=6.6e-07 $layer=POLY_cond $X=11.435 $Y=1.325
+ $X2=11.435 $Y2=1.985
r231 22 78 21.2229 $w=1.5e-07 $l=1.65e-07 $layer=POLY_cond $X=11.435 $Y=0.995
+ $X2=11.435 $Y2=1.16
r232 22 24 139.78 $w=1.5e-07 $l=4.35e-07 $layer=POLY_cond $X=11.435 $Y=0.995
+ $X2=11.435 $Y2=0.56
r233 18 77 21.2229 $w=1.5e-07 $l=1.65e-07 $layer=POLY_cond $X=11.015 $Y=1.325
+ $X2=11.015 $Y2=1.16
r234 18 20 338.426 $w=1.5e-07 $l=6.6e-07 $layer=POLY_cond $X=11.015 $Y=1.325
+ $X2=11.015 $Y2=1.985
r235 15 77 21.2229 $w=1.5e-07 $l=1.65e-07 $layer=POLY_cond $X=11.015 $Y=0.995
+ $X2=11.015 $Y2=1.16
r236 15 17 139.78 $w=1.5e-07 $l=4.35e-07 $layer=POLY_cond $X=11.015 $Y=0.995
+ $X2=11.015 $Y2=0.56
r237 11 73 14.9957 $w=1.5e-07 $l=1.65e-07 $layer=POLY_cond $X=9.125 $Y=1.145
+ $X2=9.125 $Y2=0.98
r238 11 13 579.426 $w=1.5e-07 $l=1.13e-06 $layer=POLY_cond $X=9.125 $Y=1.145
+ $X2=9.125 $Y2=2.275
r239 7 73 40.9605 $w=2.53e-07 $l=2.85832e-07 $layer=POLY_cond $X=8.91 $Y=0.815
+ $X2=9.125 $Y2=0.98
r240 7 9 189.723 $w=1.5e-07 $l=3.7e-07 $layer=POLY_cond $X=8.91 $Y=0.815
+ $X2=8.91 $Y2=0.445
r241 2 58 600 $w=1.7e-07 $l=2.01494e-07 $layer=licon1_PDIFF $count=1 $X=9.73
+ $Y=2.065 $X2=9.865 $Y2=2.21
r242 1 55 182 $w=1.7e-07 $l=2.01494e-07 $layer=licon1_NDIFF $count=1 $X=10.125
+ $Y=0.235 $X2=10.26 $Y2=0.38
.ends

.subckt PM_SKY130_FD_SC_HD__SDFRTP_4%A_1592_47# 1 2 7 9 10 12 15 16 20 25 27 28
+ 30
c118 25 0 1.41552e-19 $X=8.83 $Y=1.315
c119 16 0 4.33854e-20 $X=8.745 $Y=0.395
c120 15 0 1.82308e-20 $X=10.11 $Y=1.495
c121 7 0 1.66814e-19 $X=10.05 $Y=0.73
r122 33 34 13.5811 $w=2.65e-07 $l=2.95e-07 $layer=LI1_cond $X=8.83 $Y=1.485
+ $X2=9.125 $Y2=1.485
r123 30 31 145.28 $w=1.7e-07 $l=1.7e-07 $layer=licon1_POLY $count=1 $X=10.04
+ $Y=1.66 $X2=10.04 $Y2=1.66
r124 28 34 5.47642 $w=2.65e-07 $l=2.13307e-07 $layer=LI1_cond $X=9.21 $Y=1.66
+ $X2=9.125 $Y2=1.485
r125 28 30 54.1497 $w=1.68e-07 $l=8.3e-07 $layer=LI1_cond $X=9.21 $Y=1.66