* File: sky130_fd_sc_hd__lpflow_isobufsrc_16.spice.pex
* Created: Thu Aug 27 14:25:31 2020
* Program "Calibre xRC"
* Version "v2018.4_34.26"
* Nominal Temperature: 27C
* Circuit Temperature: 27C
* 
.subckt PM_SKY130_FD_SC_HD__LPFLOW_ISOBUFSRC_16%A 5 7 9 12 14 16 19 21 23 26 28
+ 30 33 36 37 45
r79 44 45 38.4695 $w=3.3e-07 $l=2.2e-07 $layer=POLY_cond $X=1.9 $Y=1.16 $X2=2.12
+ $Y2=1.16
r80 43 44 34.9723 $w=3.3e-07 $l=2e-07 $layer=POLY_cond $X=1.7 $Y=1.16 $X2=1.9
+ $Y2=1.16
r81 42 43 38.4695 $w=3.3e-07 $l=2.2e-07 $layer=POLY_cond $X=1.48 $Y=1.16 $X2=1.7
+ $Y2=1.16
r82 41 42 34.9723 $w=3.3e-07 $l=2e-07 $layer=POLY_cond $X=1.28 $Y=1.16 $X2=1.48
+ $Y2=1.16
r83 40 41 38.4695 $w=3.3e-07 $l=2.2e-07 $layer=POLY_cond $X=1.06 $Y=1.16
+ $X2=1.28 $Y2=1.16
r84 39 40 34.9723 $w=3.3e-07 $l=2e-07 $layer=POLY_cond $X=0.86 $Y=1.16 $X2=1.06
+ $Y2=1.16
r85 38 39 38.4695 $w=3.3e-07 $l=2.2e-07 $layer=POLY_cond $X=0.64 $Y=1.16
+ $X2=0.86 $Y2=1.16
r86 36 38 10.4917 $w=3.3e-07 $l=6e-08 $layer=POLY_cond $X=0.58 $Y=1.16 $X2=0.64
+ $Y2=1.16
r87 36 37 72.64 $w=1.7e-07 $l=3.4e-07 $layer=licon1_POLY $count=2 $X=0.58
+ $Y=1.16 $X2=0.58 $Y2=1.16
r88 33 37 6.9845 $w=3.28e-07 $l=2e-07 $layer=LI1_cond $X=0.38 $Y=1.16 $X2=0.58
+ $Y2=1.16
r89 28 45 21.2229 $w=1.5e-07 $l=1.65e-07 $layer=POLY_cond $X=2.12 $Y=0.995
+ $X2=2.12 $Y2=1.16
r90 28 30 139.78 $w=1.5e-07 $l=4.35e-07 $layer=POLY_cond $X=2.12 $Y=0.995
+ $X2=2.12 $Y2=0.56
r91 24 44 21.2229 $w=1.5e-07 $l=1.65e-07 $layer=POLY_cond $X=1.9 $Y=1.325
+ $X2=1.9 $Y2=1.16
r92 24 26 338.426 $w=1.5e-07 $l=6.6e-07 $layer=POLY_cond $X=1.9 $Y=1.325 $X2=1.9
+ $Y2=1.985
r93 21 43 21.2229 $w=1.5e-07 $l=1.65e-07 $layer=POLY_cond $X=1.7 $Y=0.995
+ $X2=1.7 $Y2=1.16
r94 21 23 139.78 $w=1.5e-07 $l=4.35e-07 $layer=POLY_cond $X=1.7 $Y=0.995 $X2=1.7
+ $Y2=0.56
r95 17 42 21.2229 $w=1.5e-07 $l=1.65e-07 $layer=POLY_cond $X=1.48 $Y=1.325
+ $X2=1.48 $Y2=1.16
r96 17 19 338.426 $w=1.5e-07 $l=6.6e-07 $layer=POLY_cond $X=1.48 $Y=1.325
+ $X2=1.48 $Y2=1.985
r97 14 41 21.2229 $w=1.5e-07 $l=1.65e-07 $layer=POLY_cond $X=1.28 $Y=0.995
+ $X2=1.28 $Y2=1.16
r98 14 16 139.78 $w=1.5e-07 $l=4.35e-07 $layer=POLY_cond $X=1.28 $Y=0.995
+ $X2=1.28 $Y2=0.56
r99 10 40 21.2229 $w=1.5e-07 $l=1.65e-07 $layer=POLY_cond $X=1.06 $Y=1.325
+ $X2=1.06 $Y2=1.16
r100 10 12 338.426 $w=1.5e-07 $l=6.6e-07 $layer=POLY_cond $X=1.06 $Y=1.325
+ $X2=1.06 $Y2=1.985
r101 7 39 21.2229 $w=1.5e-07 $l=1.65e-07 $layer=POLY_cond $X=0.86 $Y=0.995
+ $X2=0.86 $Y2=1.16
r102 7 9 139.78 $w=1.5e-07 $l=4.35e-07 $layer=POLY_cond $X=0.86 $Y=0.995
+ $X2=0.86 $Y2=0.56
r103 3 38 21.2229 $w=1.5e-07 $l=1.65e-07 $layer=POLY_cond $X=0.64 $Y=1.325
+ $X2=0.64 $Y2=1.16
r104 3 5 338.426 $w=1.5e-07 $l=6.6e-07 $layer=POLY_cond $X=0.64 $Y=1.325
+ $X2=0.64 $Y2=1.985
.ends

.subckt PM_SKY130_FD_SC_HD__LPFLOW_ISOBUFSRC_16%A_143_297# 1 2 3 4 13 15 18 20
+ 22 25 27 29 32 34 36 39 41 43 46 48 50 53 55 57 60 62 64 67 69 71 74 76 78 81
+ 83 85 88 90 92 95 97 99 102 104 106 109 111 113 116 118 120 123 127 133 135
+ 136 139 145 152 156 157 161 180
r336 177 178 73.4417 $w=3.3e-07 $l=4.2e-07 $layer=POLY_cond $X=8.34 $Y=1.16
+ $X2=8.76 $Y2=1.16
r337 176 177 73.4417 $w=3.3e-07 $l=4.2e-07 $layer=POLY_cond $X=7.92 $Y=1.16
+ $X2=8.34 $Y2=1.16
r338 175 176 73.4417 $w=3.3e-07 $l=4.2e-07 $layer=POLY_cond $X=7.5 $Y=1.16
+ $X2=7.92 $Y2=1.16
r339 174 175 73.4417 $w=3.3e-07 $l=4.2e-07 $layer=POLY_cond $X=7.08 $Y=1.16
+ $X2=7.5 $Y2=1.16
r340 173 174 73.4417 $w=3.3e-07 $l=4.2e-07 $layer=POLY_cond $X=6.66 $Y=1.16
+ $X2=7.08 $Y2=1.16
r341 172 173 73.4417 $w=3.3e-07 $l=4.2e-07 $layer=POLY_cond $X=6.24 $Y=1.16
+ $X2=6.66 $Y2=1.16
r342 171 172 73.4417 $w=3.3e-07 $l=4.2e-07 $layer=POLY_cond $X=5.82 $Y=1.16
+ $X2=6.24 $Y2=1.16
r343 170 171 73.4417 $w=3.3e-07 $l=4.2e-07 $layer=POLY_cond $X=5.4 $Y=1.16
+ $X2=5.82 $Y2=1.16
r344 169 170 73.4417 $w=3.3e-07 $l=4.2e-07 $layer=POLY_cond $X=4.98 $Y=1.16
+ $X2=5.4 $Y2=1.16
r345 168 169 73.4417 $w=3.3e-07 $l=4.2e-07 $layer=POLY_cond $X=4.56 $Y=1.16
+ $X2=4.98 $Y2=1.16
r346 167 168 73.4417 $w=3.3e-07 $l=4.2e-07 $layer=POLY_cond $X=4.14 $Y=1.16
+ $X2=4.56 $Y2=1.16
r347 166 167 73.4417 $w=3.3e-07 $l=4.2e-07 $layer=POLY_cond $X=3.72 $Y=1.16
+ $X2=4.14 $Y2=1.16
r348 165 166 73.4417 $w=3.3e-07 $l=4.2e-07 $layer=POLY_cond $X=3.3 $Y=1.16
+ $X2=3.72 $Y2=1.16
r349 158 160 8.64332 $w=2.18e-07 $l=1.65e-07 $layer=LI1_cond $X=0.925 $Y=1.175
+ $X2=1.09 $Y2=1.175
r350 156 157 6.72958 $w=3.28e-07 $l=1.25e-07 $layer=LI1_cond $X=0.85 $Y=1.62
+ $X2=0.85 $Y2=1.495
r351 153 180 15.7375 $w=3.3e-07 $l=9e-08 $layer=POLY_cond $X=9.09 $Y=1.16
+ $X2=9.18 $Y2=1.16
r352 153 178 57.7042 $w=3.3e-07 $l=3.3e-07 $layer=POLY_cond $X=9.09 $Y=1.16
+ $X2=8.76 $Y2=1.16
r353 152 153 15.2926 $w=1.7e-07 $l=1.615e-06 $layer=licon1_POLY $count=9 $X=9.09
+ $Y=1.16 $X2=9.09 $Y2=1.16
r354 150 165 57.7042 $w=3.3e-07 $l=3.3e-07 $layer=POLY_cond $X=2.97 $Y=1.16
+ $X2=3.3 $Y2=1.16
r355 150 162 15.7375 $w=3.3e-07 $l=9e-08 $layer=POLY_cond $X=2.97 $Y=1.16
+ $X2=2.88 $Y2=1.16
r356 149 152 323.221 $w=2.08e-07 $l=6.12e-06 $layer=LI1_cond $X=2.97 $Y=1.18
+ $X2=9.09 $Y2=1.18
r357 149 150 15.2926 $w=1.7e-07 $l=1.615e-06 $layer=licon1_POLY $count=9 $X=2.97
+ $Y=1.16 $X2=2.97 $Y2=1.16
r358 147 161 4.00838 $w=2.1e-07 $l=2.57488e-07 $layer=LI1_cond $X=2.035 $Y=1.18
+ $X2=1.78 $Y2=1.175
r359 147 149 49.381 $w=2.08e-07 $l=9.35e-07 $layer=LI1_cond $X=2.035 $Y=1.18
+ $X2=2.97 $Y2=1.18
r360 143 161 2.19032 $w=2.5e-07 $l=1.76635e-07 $layer=LI1_cond $X=1.91 $Y=1.065
+ $X2=1.78 $Y2=1.175
r361 143 145 29.733 $w=2.48e-07 $l=6.45e-07 $layer=LI1_cond $X=1.91 $Y=1.065
+ $X2=1.91 $Y2=0.42
r362 139 141 23.7473 $w=3.28e-07 $l=6.8e-07 $layer=LI1_cond $X=1.69 $Y=1.62
+ $X2=1.69 $Y2=2.3
r363 137 161 2.19032 $w=3.3e-07 $l=1.48324e-07 $layer=LI1_cond $X=1.69 $Y=1.285
+ $X2=1.78 $Y2=1.175
r364 137 139 11.699 $w=3.28e-07 $l=3.35e-07 $layer=LI1_cond $X=1.69 $Y=1.285
+ $X2=1.69 $Y2=1.62
r365 136 160 5.5003 $w=2.18e-07 $l=1.05e-07 $layer=LI1_cond $X=1.195 $Y=1.175
+ $X2=1.09 $Y2=1.175
r366 135 161 4.00838 $w=2.2e-07 $l=2.55e-07 $layer=LI1_cond $X=1.525 $Y=1.175
+ $X2=1.78 $Y2=1.175
r367 135 136 17.2866 $w=2.18e-07 $l=3.3e-07 $layer=LI1_cond $X=1.525 $Y=1.175
+ $X2=1.195 $Y2=1.175
r368 131 160 0.99856 $w=2.1e-07 $l=1.1e-07 $layer=LI1_cond $X=1.09 $Y=1.065
+ $X2=1.09 $Y2=1.175
r369 131 133 34.0649 $w=2.08e-07 $l=6.45e-07 $layer=LI1_cond $X=1.09 $Y=1.065
+ $X2=1.09 $Y2=0.42
r370 129 158 1.91462 $w=1.8e-07 $l=1.1e-07 $layer=LI1_cond $X=0.925 $Y=1.285
+ $X2=0.925 $Y2=1.175
r371 129 157 12.9394 $w=1.78e-07 $l=2.1e-07 $layer=LI1_cond $X=0.925 $Y=1.285
+ $X2=0.925 $Y2=1.495
r372 125 156 1.3969 $w=3.28e-07 $l=4e-08 $layer=LI1_cond $X=0.85 $Y=1.66
+ $X2=0.85 $Y2=1.62
r373 125 127 22.3504 $w=3.28e-07 $l=6.4e-07 $layer=LI1_cond $X=0.85 $Y=1.66
+ $X2=0.85 $Y2=2.3
r374 121 180 21.2229 $w=1.5e-07 $l=1.65e-07 $layer=POLY_cond $X=9.18 $Y=1.325
+ $X2=9.18 $Y2=1.16
r375 121 123 338.426 $w=1.5e-07 $l=6.6e-07 $layer=POLY_cond $X=9.18 $Y=1.325
+ $X2=9.18 $Y2=1.985
r376 118 180 21.2229 $w=1.5e-07 $l=1.65e-07 $layer=POLY_cond $X=9.18 $Y=0.995
+ $X2=9.18 $Y2=1.16
r377 118 120 139.78 $w=1.5e-07 $l=4.35e-07 $layer=POLY_cond $X=9.18 $Y=0.995
+ $X2=9.18 $Y2=0.56
r378 114 178 21.2229 $w=1.5e-07 $l=1.65e-07 $layer=POLY_cond $X=8.76 $Y=1.325
+ $X2=8.76 $Y2=1.16
r379 114 116 338.426 $w=1.5e-07 $l=6.6e-07 $layer=POLY_cond $X=8.76 $Y=1.325
+ $X2=8.76 $Y2=1.985
r380 111 178 21.2229 $w=1.5e-07 $l=1.65e-07 $layer=POLY_cond $X=8.76 $Y=0.995
+ $X2=8.76 $Y2=1.16
r381 111 113 139.78 $w=1.5e-07 $l=4.35e-07 $layer=POLY_cond $X=8.76 $Y=0.995
+ $X2=8.76 $Y2=0.56
r382 107 177 21.2229 $w=1.5e-07 $l=1.65e-07 $layer=POLY_cond $X=8.34 $Y=1.325
+ $X2=8.34 $Y2=1.16
r383 107 109 338.426 $w=1.5e-07 $l=6.6e-07 $layer=POLY_cond $X=8.34 $Y=1.325
+ $X2=8.34 $Y2=1.985
r384 104 177 21.2229 $w=1.5e-07 $l=1.65e-07 $layer=POLY_cond $X=8.34 $Y=0.995
+ $X2=8.34 $Y2=1.16
r385 104 106 139.78 $w=1.5e-07 $l=4.35e-07 $layer=POLY_cond $X=8.34 $Y=0.995
+ $X2=8.34 $Y2=0.56
r386 100 176 21.2229 $w=1.5e-07 $l=1.65e-07 $layer=POLY_cond $X=7.92 $Y=1.325
+ $X2=7.92 $Y2=1.16
r387 100 102 338.426 $w=1.5e-07 $l=6.6e-07 $layer=POLY_cond $X=7.92 $Y=1.325
+ $X2=7.92 $Y2=1.985
r388 97 176 21.2229 $w=1.5e-07 $l=1.65e-07 $layer=POLY_cond $X=7.92 $Y=0.995
+ $X2=7.92 $Y2=1.16
r389 97 99 139.78 $w=1.5e-07 $l=4.35e-07 $layer=POLY_cond $X=7.92 $Y=0.995
+ $X2=7.92 $Y2=0.56
r390 93 175 21.2229 $w=1.5e-07 $l=1.65e-07 $layer=POLY_cond $X=7.5 $Y=1.325
+ $X2=7.5 $Y2=1.16
r391 93 95 338.426 $w=1.5e-07 $l=6.6e-07 $layer=POLY_cond $X=7.5 $Y=1.325
+ $X2=7.5 $Y2=1.985
r392 90 175 21.2229 $w=1.5e-07 $l=1.65e-07 $layer=POLY_cond $X=7.5 $Y=0.995
+ $X2=7.5 $Y2=1.16
r393 90 92 139.78 $w=1.5e-07 $l=4.35e-07 $layer=POLY_cond $X=7.5 $Y=0.995
+ $X2=7.5 $Y2=0.56
r394 86 174 21.2229 $w=1.5e-07 $l=1.65e-07 $layer=POLY_cond $X=7.08 $Y=1.325
+ $X2=7.08 $Y2=1.16
r395 86 88 338.426 $w=1.5e-07 $l=6.6e-07 $layer=POLY_cond $X=7.08 $Y=1.325
+ $X2=7.08 $Y2=1.985
r396 83 174 21.2229 $w=1.5e-07 $l=1.65e-07 $layer=POLY_cond $X=7.08 $Y=0.995
+ $X2=7.08 $Y2=1.16
r397 83 85 139.78 $w=1.5e-07 $l=4.35e-07 $layer=POLY_cond $X=7.08 $Y=0.995
+ $X2=7.08 $Y2=0.56
r398 79 173 21.2229 $w=1.5e-07 $l=1.65e-07 $layer=POLY_cond $X=6.66 $Y=1.325
+ $X2=6.66 $Y2=1.16
r399 79 81 338.426 $w=1.5e-07 $l=6.6e-07 $layer=POLY_cond $X=6.66 $Y=1.325
+ $X2=6.66 $Y2=1.985
r400 76 173 21.2229 $w=1.5e-07 $l=1.65e-07 $layer=POLY_cond $X=6.66 $Y=0.995
+ $X2=6.66 $Y2=1.16
r401 76 78 139.78 $w=1.5e-07 $l=4.35e-07 $layer=POLY_cond $X=6.66 $Y=0.995
+ $X2=6.66 $Y2=0.56
r402 72 172 21.2229 $w=1.5e-07 $l=1.65e-07 $layer=POLY_cond $X=6.24 $Y=1.325
+ $X2=6.24 $Y2=1.16
r403 72 74 338.426 $w=1.5e-07 $l=6.6e-07 $layer=POLY_cond $X=6.24 $Y=1.325
+ $X2=6.24 $Y2=1.985
r404 69 172 21.2229 $w=1.5e-07 $l=1.65e-07 $layer=POLY_cond $X=6.24 $Y=0.995
+ $X2=6.24 $Y2=1.16
r405 69 71 139.78 $w=1.5e-07 $l=4.35e-07 $layer=POLY_cond $X=6.24 $Y=0.995
+ $X2=6.24 $Y2=0.56
r406 65 171 21.2229 $w=1.5e-07 $l=1.65e-07 $layer=POLY_cond $X=5.82 $Y=1.325
+ $X2=5.82 $Y2=1.16
r407 65 67 338.426 $w=1.5e-07 $l=6.6e-07 $layer=POLY_cond $X=5.82 $Y=1.325
+ $X2=5.82 $Y2=1.985
r408 62 171 21.2229 $w=1.5e-07 $l=1.65e-07 $layer=POLY_cond $X=5.82 $Y=0.995
+ $X2=5.82 $Y2=1.16
r409 62 64 139.78 $w=1.5e-07 $l=4.35e-07 $layer=POLY_cond $X=5.82 $Y=0.995
+ $X2=5.82 $Y2=0.56
r410 58 170 21.2229 $w=1.5e-07 $l=1.65e-07 $layer=POLY_cond $X=5.4 $Y=1.325
+ $X2=5.4 $Y2=1.16
r411 58 60 338.426 $w=1.5e-07 $l=6.6e-07 $layer=POLY_cond $X=5.4 $Y=1.325
+ $X2=5.4 $Y2=1.985
r412 55 170 21.2229 $w=1.5e-07 $l=1.65e-07 $layer=POLY_cond $X=5.4 $Y=0.995
+ $X2=5.4 $Y2=1.16
r413 55 57 139.78 $w=1.5e-07 $l=4.35e-07 $layer=POLY_cond $X=5.4 $Y=0.995
+ $X2=5.4 $Y2=0.56
r414 51 169 21.2229 $w=1.5e-07 $l=1.65e-07 $layer=POLY_cond $X=4.98 $Y=1.325
+ $X2=4.98 $Y2=1.16
r415 51 53 338.426 $w=1.5e-07 $l=6.6e-07 $layer=POLY_cond $X=4.98 $Y=1.325
+ $X2=4.98 $Y2=1.985
r416 48 169 21.2229 $w=1.5e-07 $l=1.65e-07 $layer=POLY_cond $X=4.98 $Y=0.995
+ $X2=4.98 $Y2=1.16
r417 48 50 139.78 $w=1.5e-07 $l=4.35e-07 $layer=POLY_cond $X=4.98 $Y=0.995
+ $X2=4.98 $Y2=0.56
r418 44 168 21.2229 $w=1.5e-07 $l=1.65e-07 $layer=POLY_cond $X=4.56 $Y=1.325
+ $X2=4.56 $Y2=1.16
r419 44 46 338.426 $w=1.5e-07 $l=6.6e-07 $layer=POLY_cond $X=4.56 $Y=1.325
+ $X2=4.56 $Y2=1.985
r420 41 168 21.2229 $w=1.5e-07 $l=1.65e-07 $layer=POLY_cond $X=4.56 $Y=0.995
+ $X2=4.56 $Y2=1.16
r421 41 43 139.78 $w=1.5e-07 $l=4.35e-07 $layer=POLY_cond $X=4.56 $Y=0.995
+ $X2=4.56 $Y2=0.56
r422 37 167 21.2229 $w=1.5e-07 $l=1.65e-07 $layer=POLY_cond $X=4.14 $Y=1.325
+ $X2=4.14 $Y2=1.16
r423 37 39 338.426 $w=1.5e-07 $l=6.6e-07 $layer=POLY_cond $X=4.14 $Y=1.325
+ $X2=4.14 $Y2=1.985
r424 34 167 21.2229 $w=1.5e-07 $l=1.65e-07 $layer=POLY_cond $X=4.14 $Y=0.995
+ $X2=4.14 $Y2=1.16
r425 34 36 139.78 $w=1.5e-07 $l=4.35e-07 $layer=POLY_cond $X=4.14 $Y=0.995
+ $X2=4.14 $Y2=0.56
r426 30 166 21.2229 $w=1.5e-07 $l=1.65e-07 $layer=POLY_cond $X=3.72 $Y=1.325
+ $X2=3.72 $Y2=1.16
r427 30 32 338.426 $w=1.5e-07 $l=6.6e-07 $layer=POLY_cond $X=3.72 $Y=1.325
+ $X2=3.72 $Y2=1.985
r428 27 166 21.2229 $w=1.5e-07 $l=1.65e-07 $layer=POLY_cond $X=3.72 $Y=0.995
+ $X2=3.72 $Y2=1.16
r429 27 29 139.78 $w=1.5e-07 $l=4.35e-07 $layer=POLY_cond $X=3.72 $Y=0.995
+ $X2=3.72 $Y2=0.56
r430 23 165 21.2229 $w=1.5e-07 $l=1.65e-07 $layer=POLY_cond $X=3.3 $Y=1.325
+ $X2=3.3 $Y2=1.16
r431 23 25 338.426 $w=1.5e-07 $l=6.6e-07 $layer=POLY_cond $X=3.3 $Y=1.325
+ $X2=3.3 $Y2=1.985
r432 20 165 21.2229 $w=1.5e-07 $l=1.65e-07 $layer=POLY_cond $X=3.3 $Y=0.995
+ $X2=3.3 $Y2=1.16
r433 20 22 139.78 $w=1.5e-07 $l=4.35e-07 $layer=POLY_cond $X=3.3 $Y=0.995
+ $X2=3.3 $Y2=0.56
r434 16 162 21.2229 $w=1.5e-07 $l=1.65e-07 $layer=POLY_cond $X=2.88 $Y=1.325
+ $X2=2.88 $Y2=1.16
r435 16 18 338.426 $w=1.5e-07 $l=6.6e-07 $layer=POLY_cond $X=2.88 $Y=1.325
+ $X2=2.88 $Y2=1.985
r436 13 162 21.2229 $w=1.5e-07 $l=1.65e-07 $layer=POLY_cond $X=2.88 $Y=0.995
+ $X2=2.88 $Y2=1.16
r437 13 15 139.78 $w=1.5e-07 $l=4.35e-07 $layer=POLY_cond $X=2.88 $Y=0.995
+ $X2=2.88 $Y2=0.56
r438 4 141 400 $w=1.7e-07 $l=8.79915e-07 $layer=licon1_PDIFF $count=1 $X=1.555
+ $Y=1.485 $X2=1.69 $Y2=2.3
r439 4 139 400 $w=1.7e-07 $l=1.90919e-07 $layer=licon1_PDIFF $count=1 $X=1.555
+ $Y=1.485 $X2=1.69 $Y2=1.62
r440 3 156 400 $w=1.7e-07 $l=1.90919e-07 $layer=licon1_PDIFF $count=1 $X=0.715
+ $Y=1.485 $X2=0.85 $Y2=1.62
r441 3 127 400 $w=1.7e-07 $l=8.79915e-07 $layer=licon1_PDIFF $count=1 $X=0.715
+ $Y=1.485 $X2=0.85 $Y2=2.3
r442 2 145 91 $w=1.7e-07 $l=2.43311e-07 $layer=licon1_NDIFF $count=2 $X=1.775
+ $Y=0.235 $X2=1.91 $Y2=0.42
r443 1 133 91 $w=1.7e-07 $l=2.43311e-07 $layer=licon1_NDIFF $count=2 $X=0.935
+ $Y=0.235 $X2=1.07 $Y2=0.42
.ends

.subckt PM_SKY130_FD_SC_HD__LPFLOW_ISOBUFSRC_16%SLEEP 1 3 6 8 10 13 15 17 20 22
+ 24 27 29 31 34 36 38 41 43 45 48 50 52 55 57 59 62 64 66 69 71 73 76 78 80 83
+ 85 87 90 92 94 97 99 101 104 106 108 111 113 119 137
r281 136 137 73.4417 $w=3.3e-07 $l=4.2e-07 $layer=POLY_cond $X=15.48 $Y=1.16
+ $X2=15.9 $Y2=1.16
r282 134 136 1.74861 $w=3.3e-07 $l=1e-08 $layer=POLY_cond $X=15.47 $Y=1.16
+ $X2=15.48 $Y2=1.16
r283 132 134 71.6931 $w=3.3e-07 $l=4.1e-07 $layer=POLY_cond $X=15.06 $Y=1.16
+ $X2=15.47 $Y2=1.16
r284 131 132 73.4417 $w=3.3e-07 $l=4.2e-07 $layer=POLY_cond $X=14.64 $Y=1.16
+ $X2=15.06 $Y2=1.16
r285 130 131 73.4417 $w=3.3e-07 $l=4.2e-07 $layer=POLY_cond $X=14.22 $Y=1.16
+ $X2=14.64 $Y2=1.16
r286 129 130 73.4417 $w=3.3e-07 $l=4.2e-07 $layer=POLY_cond $X=13.8 $Y=1.16
+ $X2=14.22 $Y2=1.16
r287 128 129 73.4417 $w=3.3e-07 $l=4.2e-07 $layer=POLY_cond $X=13.38 $Y=1.16
+ $X2=13.8 $Y2=1.16
r288 127 128 73.4417 $w=3.3e-07 $l=4.2e-07 $layer=POLY_cond $X=12.96 $Y=1.16
+ $X2=13.38 $Y2=1.16
r289 126 127 73.4417 $w=3.3e-07 $l=4.2e-07 $layer=POLY_cond $X=12.54 $Y=1.16
+ $X2=12.96 $Y2=1.16
r290 125 126 73.4417 $w=3.3e-07 $l=4.2e-07 $layer=POLY_cond $X=12.12 $Y=1.16
+ $X2=12.54 $Y2=1.16
r291 124 125 73.4417 $w=3.3e-07 $l=4.2e-07 $layer=POLY_cond $X=11.7 $Y=1.16
+ $X2=12.12 $Y2=1.16
r292 123 124 73.4417 $w=3.3e-07 $l=4.2e-07 $layer=POLY_cond $X=11.28 $Y=1.16
+ $X2=11.7 $Y2=1.16
r293 122 123 73.4417 $w=3.3e-07 $l=4.2e-07 $layer=POLY_cond $X=10.86 $Y=1.16
+ $X2=11.28 $Y2=1.16
r294 121 122 73.4417 $w=3.3e-07 $l=4.2e-07 $layer=POLY_cond $X=10.44 $Y=1.16
+ $X2=10.86 $Y2=1.16
r295 120 121 73.4417 $w=3.3e-07 $l=4.2e-07 $layer=POLY_cond $X=10.02 $Y=1.16
+ $X2=10.44 $Y2=1.16
r296 119 134 16.1422 $w=1.7e-07 $l=1.53e-06 $layer=licon1_POLY $count=9 $X=15.47
+ $Y=1.16 $X2=15.47 $Y2=1.16
r297 118 120 57.7042 $w=3.3e-07 $l=3.3e-07 $layer=POLY_cond $X=9.69 $Y=1.16
+ $X2=10.02 $Y2=1.16
r298 118 119 16.1422 $w=1.7e-07 $l=1.53e-06 $layer=licon1_POLY $count=9 $X=9.69
+ $Y=1.16 $X2=9.69 $Y2=1.16
r299 115 118 15.7375 $w=3.3e-07 $l=9e-08 $layer=POLY_cond $X=9.6 $Y=1.16
+ $X2=9.69 $Y2=1.16
r300 113 119 0.0590323 $w=6.198e-06 $l=3e-08 $layer=LI1_cond $X=12.55 $Y=1.19
+ $X2=12.55 $Y2=1.16
r301 109 137 21.2229 $w=1.5e-07 $l=1.65e-07 $layer=POLY_cond $X=15.9 $Y=1.325
+ $X2=15.9 $Y2=1.16
r302 109 111 338.426 $w=1.5e-07 $l=6.6e-07 $layer=POLY_cond $X=15.9 $Y=1.325
+ $X2=15.9 $Y2=1.985
r303 106 137 21.2229 $w=1.5e-07 $l=1.65e-07 $layer=POLY_cond $X=15.9 $Y=0.995
+ $X2=15.9 $Y2=1.16
r304 106 108 139.78 $w=1.5e-07 $l=4.35e-07 $layer=POLY_cond $X=15.9 $Y=0.995
+ $X2=15.9 $Y2=0.56
r305 102 136 21.2229 $w=1.5e-07 $l=1.65e-07 $layer=POLY_cond $X=15.48 $Y=1.325
+ $X2=15.48 $Y2=1.16
r306 102 104 338.426 $w=1.5e-07 $l=6.6e-07 $layer=POLY_cond $X=15.48 $Y=1.325
+ $X2=15.48 $Y2=1.985
r307 99 136 21.2229 $w=1.5e-07 $l=1.65e-07 $layer=POLY_cond $X=15.48 $Y=0.995
+ $X2=15.48 $Y2=1.16
r308 99 101 139.78 $w=1.5e-07 $l=4.35e-07 $layer=POLY_cond $X=15.48 $Y=0.995
+ $X2=15.48 $Y2=0.56
r309 95 132 21.2229 $w=1.5e-07 $l=1.65e-07 $layer=POLY_cond $X=15.06 $Y=1.325
+ $X2=15.06 $Y2=1.16
r310 95 97 338.426 $w=1.5e-07 $l=6.6e-07 $layer=POLY_cond $X=15.06 $Y=1.325
+ $X2=15.06 $Y2=1.985
r311 92 132 21.2229 $w=1.5e-07 $l=1.65e-07 $layer=POLY_cond $X=15.06 $Y=0.995
+ $X2=15.06 $Y2=1.16
r312 92 94 139.78 $w=1.5e-07 $l=4.35e-07 $layer=POLY_cond $X=15.06 $Y=0.995
+ $X2=15.06 $Y2=0.56
r313 88 131 21.2229 $w=1.5e-07 $l=1.65e-07 $layer=POLY_cond $X=14.64 $Y=1.325
+ $X2=14.64 $Y2=1.16
r314 88 90 338.426 $w=1.5e-07 $l=6.6e-07 $layer=POLY_cond $X=14.64 $Y=1.325
+ $X2=14.64 $Y2=1.985
r315 85 131 21.2229 $w=1.5e-07 $l=1.65e-07 $layer=POLY_cond $X=14.64 $Y=0.995
+ $X2=14.64 $Y2=1.16
r316 85 87 139.78 $w=1.5e-07 $l=4.35e-07 $layer=POLY_cond $X=14.64 $Y=0.995
+ $X2=14.64 $Y2=0.56
r317 81 130 21.2229 $w=1.5e-07 $l=1.65e-07 $layer=POLY_cond $X=14.22 $Y=1.325
+ $X2=14.22 $Y2=1.16
r318 81 83 338.426 $w=1.5e-07 $l=6.6e-07 $layer=POLY_cond $X=14.22 $Y=1.325
+ $X2=14.22 $Y2=1.985
r319 78 130 21.2229 $w=1.5e-07 $l=1.65e-07 $layer=POLY_cond $X=14.22 $Y=0.995
+ $X2=14.22 $Y2=1.16
r320 78 80 139.78 $w=1.5e-07 $l=4.35e-07 $layer=POLY_cond $X=14.22 $Y=0.995
+ $X2=14.22 $Y2=0.56
r321 74 129 21.2229 $w=1.5e-07 $l=1.65e-07 $layer=POLY_cond $X=13.8 $Y=1.325
+ $X2=13.8 $Y2=1.16
r322 74 76 338.426 $w=1.5e-07 $l=6.6e-07 $layer=POLY_cond $X=13.8 $Y=1.325
+ $X2=13.8 $Y2=1.985
r323 71 129 21.2229 $w=1.5e-07 $l=1.65e-07 $layer=POLY_cond $X=13.8 $Y=0.995
+ $X2=13.8 $Y2=1.16
r324 71 73 139.78 $w=1.5e-07 $l=4.35e-07 $layer=POLY_cond $X=13.8 $Y=0.995
+ $X2=13.8 $Y2=0.56
r325 67 128 21.2229 $w=1.5e-07 $l=1.65e-07 $layer=POLY_cond $X=13.38 $Y=1.325
+ $X2=13.38 $Y2=1.16
r326 67 69 338.426 $w=1.5e-07 $l=6.6e-07 $layer=POLY_cond $X=13.38 $Y=1.325
+ $X2=13.38 $Y2=1.985
r327 64 128 21.2229 $w=1.5e-07 $l=1.65e-07 $layer=POLY_cond $X=13.38 $Y=0.995
+ $X2=13.38 $Y2=1.16
r328 64 66 139.78 $w=1.5e-07 $l=4.35e-07 $layer=POLY_cond $X=13.38 $Y=0.995
+ $X2=13.38 $Y2=0.56
r329 60 127 21.2229 $w=1.5e-07 $l=1.65e-07 $layer=POLY_cond $X=12.96 $Y=1.325
+ $X2=12.96 $Y2=1.16
r330 60 62 338.426 $w=1.5e-07 $l=6.6e-07 $layer=POLY_cond $X=12.96 $Y=1.325
+ $X2=12.96 $Y2=1.985
r331 57 127 21.2229 $w=1.5e-07 $l=1.65e-07 $layer=POLY_cond $X=12.96 $Y=0.995
+ $X2=12.96 $Y2=1.16
r332 57 59 139.78 $w=1.5e-07 $l=4.35e-07 $layer=POLY_cond $X=12.96 $Y=0.995
+ $X2=12.96 $Y2=0.56
r333 53 126 21.2229 $w=1.5e-07 $l=1.65e-07 $layer=POLY_cond $X=12.54 $Y=1.325
+ $X2=12.54 $Y2=1.16
r334 53 55 338.426 $w=1.5e-07 $l=6.6e-07 $layer=POLY_cond $X=12.54 $Y=1.325
+ $X2=12.54 $Y2=1.985
r335 50 126 21.2229 $w=1.5e-07 $l=1.65e-07 $layer=POLY_cond $X=12.54 $Y=0.995
+ $X2=12.54 $Y2=1.16
r336 50 52 139.78 $w=1.5e-07 $l=4.35e-07 $layer=POLY_cond $X=12.54 $Y=0.995
+ $X2=12.54 $Y2=0.56
r337 46 125 21.2229 $w=1.5e-07 $l=1.65e-07 $layer=POLY_cond $X=12.12 $Y=1.325
+ $X2=12.12 $Y2=1.16
r338 46 48 338.426 $w=1.5e-07 $l=6.6e-07 $layer=POLY_cond $X=12.12 $Y=1.325
+ $X2=12.12 $Y2=1.985
r339 43 125 21.2229 $w=1.5e-07 $l=1.65e-07 $layer=POLY_cond $X=12.12 $Y=0.995
+ $X2=12.12 $Y2=1.16
r340 43 45 139.78 $w=1.5e-07 $l=4.35e-07 $layer=POLY_cond $X=12.12 $Y=0.995
+ $X2=12.12 $Y2=0.56
r341 39 124 21.2229 $w=1.5e-07 $l=1.65e-07 $layer=POLY_cond $X=11.7 $Y=1.325
+ $X2=11.7 $Y2=1.16
r342 39 41 338.426 $w=1.5e-07 $l=6.6e-07 $layer=POLY_cond $X=11.7 $Y=1.325
+ $X2=11.7 $Y2=1.985
r343 36 124 21.2229 $w=1.5e-07 $l=1.65e-07 $layer=POLY_cond $X=11.7 $Y=0.995
+ $X2=11.7 $Y2=1.16
r344 36 38 139.78 $w=1.5e-07 $l=4.35e-07 $layer=POLY_cond $X=11.7 $Y=0.995
+ $X2=11.7 $Y2=0.56
r345 32 123 21.2229 $w=1.5e-07 $l=1.65e-07 $layer=POLY_cond $X=11.28 $Y=1.325
+ $X2=11.28 $Y2=1.16
r346 32 34 338.426 $w=1.5e-07 $l=6.6e-07 $layer=POLY_cond $X=11.28 $Y=1.325
+ $X2=11.28 $Y2=1.985
r347 29 123 21.2229 $w=1.5e-07 $l=1.65e-07 $layer=POLY_cond $X=11.28 $Y=0.995
+ $X2=11.28 $Y2=1.16
r348 29 31 139.78 $w=1.5e-07 $l=4.35e-07 $layer=POLY_cond $X=11.28 $Y=0.995
+ $X2=11.28 $Y2=0.56
r349 25 122 21.2229 $w=1.5e-07 $l=1.65e-07 $layer=POLY_cond $X=10.86 $Y=1.325
+ $X2=10.86 $Y2=1.16
r350 25 27 338.426 $w=1.5e-07 $l=6.6e-07 $layer=POLY_cond $X=10.86 $Y=1.325
+ $X2=10.86 $Y2=1.985
r351 22 122 21.2229 $w=1.5e-07 $l=1.65e-07 $layer=POLY_cond $X=10.86 $Y=0.995
+ $X2=10.86 $Y2=1.16
r352 22 24 139.78 $w=1.5e-07 $l=4.35e-07 $layer=POLY_cond $X=10.86 $Y=0.995
+ $X2=10.86 $Y2=0.56
r353 18 121 21.2229 $w=1.5e-07 $l=1.65e-07 $layer=POLY_cond $X=10.44 $Y=1.325
+ $X2=10.44 $Y2=1.16
r354 18 20 338.426 $w=1.5e-07 $l=6.6e-07 $layer=POLY_cond $X=10.44 $Y=1.325
+ $X2=10.44 $Y2=1.985
r355 15 121 21.2229 $w=1.5e-07 $l=1.65e-07 $layer=POLY_cond $X=10.44 $Y=0.995
+ $X2=10.44 $Y2=1.16
r356 15 17 139.78 $w=1.5e-07 $l=4.35e-07 $layer=POLY_cond $X=10.44 $Y=0.995
+ $X2=10.44 $Y2=0.56
r357 11 120 21.2229 $w=1.5e-07 $l=1.65e-07 $layer=POLY_cond $X=10.02 $Y=1.325
+ $X2=10.02 $Y2=1.16
r358 11 13 338.426 $w=1.5e-07 $l=6.6e-07 $layer=POLY_cond $X=10.02 $Y=1.325
+ $X2=10.02 $Y2=1.985
r359 8 120 21.2229 $w=1.5e-07 $l=1.65e-07 $layer=POLY_cond $X=10.02 $Y=0.995
+ $X2=10.02 $Y2=1.16
r360 8 10 139.78 $w=1.5e-07 $l=4.35e-07 $layer=POLY_cond $X=10.02 $Y=0.995
+ $X2=10.02 $Y2=0.56
r361 4 115 21.2229 $w=1.5e-07 $l=1.65e-07 $layer=POLY_cond $X=9.6 $Y=1.325
+ $X2=9.6 $Y2=1.16
r362 4 6 338.426 $w=1.5e-07 $l=6.6e-07 $layer=POLY_cond $X=9.6 $Y=1.325 $X2=9.6
+ $Y2=1.985
r363 1 115 21.2229 $w=1.5e-07 $l=1.65e-07 $layer=POLY_cond $X=9.6 $Y=0.995
+ $X2=9.6 $Y2=1.16
r364 1 3 139.78 $w=1.5e-07 $l=4.35e-07 $layer=POLY_cond $X=9.6 $Y=0.995 $X2=9.6
+ $Y2=0.56
.ends

.subckt PM_SKY130_FD_SC_HD__LPFLOW_ISOBUFSRC_16%VPWR 1 2 3 4 5 6 7 8 9 10 11 36
+ 42 46 50 54 58 62 66 70 74 78 80 84 88 91 92 93 94 96 97 99 100 102 103 104
+ 105 106 115 133 143 144 147 150 153 156 159
r236 159 160 9.3 $w=1.7e-07 $l=1.7e-07 $layer=mcon $count=1 $X=8.97 $Y=2.72
+ $X2=8.97 $Y2=2.72
r237 156 157 4.65 $w=1.7e-07 $l=3.4e-07 $layer=mcon $count=2 $X=8.05 $Y=2.72
+ $X2=8.05 $Y2=2.72
r238 153 154 9.3 $w=1.7e-07 $l=1.7e-07 $layer=mcon $count=1 $X=3.91 $Y=2.72
+ $X2=3.91 $Y2=2.72
r239 150 151 4.65 $w=1.7e-07 $l=3.4e-07 $layer=mcon $count=2 $X=2.99 $Y=2.72
+ $X2=2.99 $Y2=2.72
r240 148 151 0.261778 $w=4.8e-07 $l=9.2e-07 $layer=MET1_cond $X=2.07 $Y=2.72
+ $X2=2.99 $Y2=2.72
r241 147 148 4.65 $w=1.7e-07 $l=3.4e-07 $layer=mcon $count=2 $X=2.07 $Y=2.72
+ $X2=2.07 $Y2=2.72
r242 143 144 1.1625 $w=1.7e-07 $l=1.36e-06 $layer=mcon $count=8 $X=16.33 $Y=2.72
+ $X2=16.33 $Y2=2.72
r243 141 144 1.96334 $w=4.8e-07 $l=6.9e-06 $layer=MET1_cond $X=9.43 $Y=2.72
+ $X2=16.33 $Y2=2.72
r244 141 160 0.130889 $w=4.8e-07 $l=4.6e-07 $layer=MET1_cond $X=9.43 $Y=2.72
+ $X2=8.97 $Y2=2.72
r245 140 143 450.16 $w=1.68e-07 $l=6.9e-06 $layer=LI1_cond $X=9.43 $Y=2.72
+ $X2=16.33 $Y2=2.72
r246 140 141 1.1625 $w=1.7e-07 $l=1.36e-06 $layer=mcon $count=8 $X=9.43 $Y=2.72
+ $X2=9.43 $Y2=2.72
r247 138 159 7.02821 $w=1.7e-07 $l=1.25e-07 $layer=LI1_cond $X=9.095 $Y=2.72
+ $X2=8.97 $Y2=2.72
r248 138 140 21.8556 $w=1.68e-07 $l=3.35e-07 $layer=LI1_cond $X=9.095 $Y=2.72
+ $X2=9.43 $Y2=2.72
r249 137 160 0.130889 $w=4.8e-07 $l=4.6e-07 $layer=MET1_cond $X=8.51 $Y=2.72
+ $X2=8.97 $Y2=2.72
r250 137 157 0.130889 $w=4.8e-07 $l=4.6e-07 $layer=MET1_cond $X=8.51 $Y=2.72
+ $X2=8.05 $Y2=2.72
r251 136 137 9.3 $w=1.7e-07 $l=1.7e-07 $layer=mcon $count=1 $X=8.51 $Y=2.72
+ $X2=8.51 $Y2=2.72
r252 134 156 7.02821 $w=1.7e-07 $l=1.25e-07 $layer=LI1_cond $X=8.255 $Y=2.72
+ $X2=8.13 $Y2=2.72
r253 134 136 16.6364 $w=1.68e-07 $l=2.55e-07 $layer=LI1_cond $X=8.255 $Y=2.72
+ $X2=8.51 $Y2=2.72
r254 133 159 7.02821 $w=1.7e-07 $l=1.25e-07 $layer=LI1_cond $X=8.845 $Y=2.72
+ $X2=8.97 $Y2=2.72
r255 133 136 21.8556 $w=1.68e-07 $l=3.35e-07 $layer=LI1_cond $X=8.845 $Y=2.72
+ $X2=8.51 $Y2=2.72
r256 132 157 0.261778 $w=4.8e-07 $l=9.2e-07 $layer=MET1_cond $X=7.13 $Y=2.72
+ $X2=8.05 $Y2=2.72
r257 131 132 4.65 $w=1.7e-07 $l=3.4e-07 $layer=mcon $count=2 $X=7.13 $Y=2.72
+ $X2=7.13 $Y2=2.72
r258 129 132 0.261778 $w=4.8e-07 $l=9.2e-07 $layer=MET1_cond $X=6.21 $Y=2.72
+ $X2=7.13 $Y2=2.72
r259 128 129 4.65 $w=1.7e-07 $l=3.4e-07 $layer=mcon $count=2 $X=6.21 $Y=2.72
+ $X2=6.21 $Y2=2.72
r260 126 129 0.261778 $w=4.8e-07 $l=9.2e-07 $layer=MET1_cond $X=5.29 $Y=2.72
+ $X2=6.21 $Y2=2.72
r261 125 126 4.65 $w=1.7e-07 $l=3.4e-07 $layer=mcon $count=2 $X=5.29 $Y=2.72
+ $X2=5.29 $Y2=2.72
r262 123 126 0.261778 $w=4.8e-07 $l=9.2e-07 $layer=MET1_cond $X=4.37 $Y=2.72
+ $X2=5.29 $Y2=2.72
r263 123 154 0.130889 $w=4.8e-07 $l=4.6e-07 $layer=MET1_cond $X=4.37 $Y=2.72
+ $X2=3.91 $Y2=2.72
r264 122 123 9.3 $w=1.7e-07 $l=1.7e-07 $layer=mcon $count=1 $X=4.37 $Y=2.72
+ $X2=4.37 $Y2=2.72
r265 120 153 7.02821 $w=1.7e-07 $l=1.25e-07 $layer=LI1_cond $X=4.055 $Y=2.72
+ $X2=3.93 $Y2=2.72
r266 120 122 20.5508 $w=1.68e-07 $l=3.15e-07 $layer=LI1_cond $X=4.055 $Y=2.72
+ $X2=4.37 $Y2=2.72
r267 119 154 0.130889 $w=4.8e-07 $l=4.6e-07 $layer=MET1_cond $X=3.45 $Y=2.72
+ $X2=3.91 $Y2=2.72
r268 119 151 0.130889 $w=4.8e-07 $l=4.6e-07 $layer=MET1_cond $X=3.45 $Y=2.72
+ $X2=2.99 $Y2=2.72
r269 118 119 9.3 $w=1.7e-07 $l=1.7e-07 $layer=mcon $count=1 $X=3.45 $Y=2.72
+ $X2=3.45 $Y2=2.72
r270 116 150 7.02821 $w=1.7e-07 $l=1.25e-07 $layer=LI1_cond $X=3.215 $Y=2.72
+ $X2=3.09 $Y2=2.72
r271 116 118 15.3316 $w=1.68e-07 $l=2.35e-07 $layer=LI1_cond $X=3.215 $Y=2.72
+ $X2=3.45 $Y2=2.72
r272 115 153 7.02821 $w=1.7e-07 $l=1.25e-07 $layer=LI1_cond $X=3.805 $Y=2.72
+ $X2=3.93 $Y2=2.72
r273 115 118 23.1604 $w=1.68e-07 $l=3.55e-07 $layer=LI1_cond $X=3.805 $Y=2.72
+ $X2=3.45 $Y2=2.72
r274 114 148 0.261778 $w=4.8e-07 $l=9.2e-07 $layer=MET1_cond $X=1.15 $Y=2.72
+ $X2=2.07 $Y2=2.72
r275 113 114 4.65 $w=1.7e-07 $l=3.4e-07 $layer=mcon $count=2 $X=1.15 $Y=2.72
+ $X2=1.15 $Y2=2.72
r276 106 114 0.261778 $w=4.8e-07 $l=9.2e-07 $layer=MET1_cond $X=0.23 $Y=2.72
+ $X2=1.15 $Y2=2.72
r277 106 109 9.3 $w=1.7e-07 $l=1.7e-07 $layer=mcon $count=1 $X=0.23 $Y=2.72
+ $X2=0.23 $Y2=2.72
r278 104 131 2.28342 $w=1.68e-07 $l=3.5e-08 $layer=LI1_cond $X=7.165 $Y=2.72
+ $X2=7.13 $Y2=2.72
r279 104 105 7.02821 $w=1.7e-07 $l=1.25e-07 $layer=LI1_cond $X=7.165 $Y=2.72
+ $X2=7.29 $Y2=2.72
r280 102 128 7.50267 $w=1.68e-07 $l=1.15e-07 $layer=LI1_cond $X=6.325 $Y=2.72
+ $X2=6.21 $Y2=2.72
r281 102 103 7.02821 $w=1.7e-07 $l=1.25e-07 $layer=LI1_cond $X=6.325 $Y=2.72
+ $X2=6.45 $Y2=2.72
r282 101 131 36.2086 $w=1.68e-07 $l=5.55e-07 $layer=LI1_cond $X=6.575 $Y=2.72
+ $X2=7.13 $Y2=2.72
r283 101 103 7.02821 $w=1.7e-07 $l=1.25e-07 $layer=LI1_cond $X=6.575 $Y=2.72
+ $X2=6.45 $Y2=2.72
r284 99 125 12.7219 $w=1.68e-07 $l=1.95e-07 $layer=LI1_cond $X=5.485 $Y=2.72
+ $X2=5.29 $Y2=2.72
r285 99 100 7.02821 $w=1.7e-07 $l=1.25e-07 $layer=LI1_cond $X=5.485 $Y=2.72
+ $X2=5.61 $Y2=2.72
r286 98 128 30.9893 $w=1.68e-07 $l=4.75e-07 $layer=LI1_cond $X=5.735 $Y=2.72
+ $X2=6.21 $Y2=2.72
r287 98 100 7.02821 $w=1.7e-07 $l=1.25e-07 $layer=LI1_cond $X=5.735 $Y=2.72
+ $X2=5.61 $Y2=2.72
r288 96 122 17.9412 $w=1.68e-07 $l=2.75e-07 $layer=LI1_cond $X=4.645 $Y=2.72
+ $X2=4.37 $Y2=2.72
r289 96 97 7.02821 $w=1.7e-07 $l=1.25e-07 $layer=LI1_cond $X=4.645 $Y=2.72
+ $X2=4.77 $Y2=2.72
r290 95 125 25.7701 $w=1.68e-07 $l=3.95e-07 $layer=LI1_cond $X=4.895 $Y=2.72
+ $X2=5.29 $Y2=2.72
r291 95 97 7.02821 $w=1.7e-07 $l=1.25e-07 $layer=LI1_cond $X=4.895 $Y=2.72
+ $X2=4.77 $Y2=2.72
r292 93 113 2.28342 $w=1.68e-07 $l=3.5e-08 $layer=LI1_cond $X=1.185 $Y=2.72
+ $X2=1.15 $Y2=2.72
r293 93 94 5.16603 $w=1.7e-07 $l=8.5e-08 $layer=LI1_cond $X=1.185 $Y=2.72
+ $X2=1.27 $Y2=2.72
r294 91 109 4.56684 $w=1.68e-07 $l=7e-08 $layer=LI1_cond $X=0.3 $Y=2.72 $X2=0.23
+ $Y2=2.72
r295 91 92 6.25164 $w=1.7e-07 $l=1.07e-07 $layer=LI1_cond $X=0.3 $Y=2.72
+ $X2=0.407 $Y2=2.72
r296 90 113 41.4278 $w=1.68e-07 $l=6.35e-07 $layer=LI1_cond $X=0.515 $Y=2.72
+ $X2=1.15 $Y2=2.72
r297 90 92 6.25164 $w=1.7e-07 $l=1.08e-07 $layer=LI1_cond $X=0.515 $Y=2.72
+ $X2=0.407 $Y2=2.72
r298 86 159 0.00168595 $w=2.5e-07 $l=8.5e-08 $layer=LI1_cond $X=8.97 $Y=2.635
+ $X2=8.97 $Y2=2.72
r299 86 88 29.2721 $w=2.48e-07 $l=6.35e-07 $layer=LI1_cond $X=8.97 $Y=2.635
+ $X2=8.97 $Y2=2
r300 82 156 0.00168595 $w=2.5e-07 $l=8.5e-08 $layer=LI1_cond $X=8.13 $Y=2.635
+ $X2=8.13 $Y2=2.72
r301 82 84 29.2721 $w=2.48e-07 $l=6.35e-07 $layer=LI1_cond $X=8.13 $Y=2.635
+ $X2=8.13 $Y2=2
r302 81 105 7.02821 $w=1.7e-07 $l=1.25e-07 $layer=LI1_cond $X=7.415 $Y=2.72
+ $X2=7.29 $Y2=2.72
r303 80 156 7.02821 $w=1.7e-07 $l=1.25e-07 $layer=LI1_cond $X=8.005 $Y=2.72
+ $X2=8.13 $Y2=2.72
r304 80 81 38.492 $w=1.68e-07 $l=5.9e-07 $layer=LI1_cond $X=8.005 $Y=2.72
+ $X2=7.415 $Y2=2.72
r305 76 105 0.00168595 $w=2.5e-07 $l=8.5e-08 $layer=LI1_cond $X=7.29 $Y=2.635
+ $X2=7.29 $Y2=2.72
r306 76 78 29.2721 $w=2.48e-07 $l=6.35e-07 $layer=LI1_cond $X=7.29 $Y=2.635
+ $X2=7.29 $Y2=2
r307 72 103 0.00168595 $w=2.5e-07 $l=8.5e-08 $layer=LI1_cond $X=6.45 $Y=2.635
+ $X2=6.45 $Y2=2.72
r308 72 74 29.2721 $w=2.48e-07 $l=6.35e-07 $layer=LI1_cond $X=6.45 $Y=2.635
+ $X2=6.45 $Y2=2
r309 68 100 0.00168595 $w=2.5e-07 $l=8.5e-08 $layer=LI1_cond $X=5.61 $Y=2.635
+ $X2=5.61 $Y2=2.72
r310 68 70 29.2721 $w=2.48e-07 $l=6.35e-07 $layer=LI1_cond $X=5.61 $Y=2.635
+ $X2=5.61 $Y2=2
r311 64 97 0.00168595 $w=2.5e-07 $l=8.5e-08 $layer=LI1_cond $X=4.77 $Y=2.635
+ $X2=4.77 $Y2=2.72
r312 64 66 29.2721 $w=2.48e-07 $l=6.35e-07 $layer=LI1_cond $X=4.77 $Y=2.635
+ $X2=4.77 $Y2=2
r313 60 153 0.00168595 $w=2.5e-07 $l=8.5e-08 $layer=LI1_cond $X=3.93 $Y=2.635
+ $X2=3.93 $Y2=2.72
r314 60 62 29.2721 $w=2.48e-07 $l=6.35e-07 $layer=LI1_cond $X=3.93 $Y=2.635
+ $X2=3.93 $Y2=2
r315 56 150 0.00168595 $w=2.5e-07 $l=8.5e-08 $layer=LI1_cond $X=3.09 $Y=2.635
+ $X2=3.09 $Y2=2.72
r316 56 58 29.2721 $w=2.48e-07 $l=6.35e-07 $layer=LI1_cond $X=3.09 $Y=2.635
+ $X2=3.09 $Y2=2