* File: sky130_fd_sc_hd__sdfsbp_1.pex.spice
* Created: Tue Sep  1 19:30:30 2020
* Program "Calibre xRC"
* Version "v2018.4_34.26"
* Nominal Temperature: 27C
* Circuit Temperature: 27C
* 
.subckt PM_SKY130_FD_SC_HD__SDFSBP_1%SCD 1 2 3 5 6 8 11 13 14
r35 18 19 145.28 $w=1.7e-07 $l=1.7e-07 $layer=licon1_POLY $count=1 $X=0.26
+ $Y=1.16 $X2=0.26 $Y2=1.16
r36 14 19 16.4002 $w=2.58e-07 $l=3.7e-07 $layer=LI1_cond $X=0.215 $Y=1.53
+ $X2=0.215 $Y2=1.16
r37 13 19 13.7407 $w=2.58e-07 $l=3.1e-07 $layer=LI1_cond $X=0.215 $Y=0.85
+ $X2=0.215 $Y2=1.16
r38 9 11 76.9149 $w=1.5e-07 $l=1.5e-07 $layer=POLY_cond $X=0.32 $Y=1.695
+ $X2=0.47 $Y2=1.695
r39 6 11 2.83073 $w=1.5e-07 $l=7.5e-08 $layer=POLY_cond $X=0.47 $Y=1.77 $X2=0.47
+ $Y2=1.695
r40 6 8 126.927 $w=1.5e-07 $l=3.95e-07 $layer=POLY_cond $X=0.47 $Y=1.77 $X2=0.47
+ $Y2=2.165
r41 3 18 87.8413 $w=2.62e-07 $l=4.96377e-07 $layer=POLY_cond $X=0.47 $Y=0.73
+ $X2=0.327 $Y2=1.16
r42 3 5 91.58 $w=1.5e-07 $l=2.85e-07 $layer=POLY_cond $X=0.47 $Y=0.73 $X2=0.47
+ $Y2=0.445
r43 2 9 2.83073 $w=1.5e-07 $l=7.5e-08 $layer=POLY_cond $X=0.32 $Y=1.62 $X2=0.32
+ $Y2=1.695
r44 1 18 39.0894 $w=2.62e-07 $l=1.68464e-07 $layer=POLY_cond $X=0.32 $Y=1.325
+ $X2=0.327 $Y2=1.16
r45 1 2 151.266 $w=1.5e-07 $l=2.95e-07 $layer=POLY_cond $X=0.32 $Y=1.325
+ $X2=0.32 $Y2=1.62
.ends

.subckt PM_SKY130_FD_SC_HD__SDFSBP_1%SCE 3 5 7 11 15 17 19 20 26 33 34
c103 26 0 1.07953e-19 $X=2.53 $Y=1.19
c104 7 0 1.67072e-19 $X=0.89 $Y=2.165
r105 33 36 46.135 $w=3.15e-07 $l=1.65e-07 $layer=POLY_cond $X=2.557 $Y=1.16
+ $X2=2.557 $Y2=1.325
r106 33 35 46.135 $w=3.15e-07 $l=1.65e-07 $layer=POLY_cond $X=2.557 $Y=1.16
+ $X2=2.557 $Y2=0.995
r107 33 34 145.28 $w=1.7e-07 $l=1.7e-07 $layer=licon1_POLY $count=1 $X=2.535
+ $Y=1.16 $X2=2.535 $Y2=1.16
r108 26 34 9.3 $w=1.7e-07 $l=1.7e-07 $layer=mcon $count=1 $X=2.53 $Y=1.19
+ $X2=2.53 $Y2=1.19
r109 20 22 0.115467 $w=2.3e-07 $l=1.45e-07 $layer=MET1_cond $X=0.84 $Y=1.19
+ $X2=0.695 $Y2=1.19
r110 19 26 0.115467 $w=2.3e-07 $l=1.45e-07 $layer=MET1_cond $X=2.385 $Y=1.19
+ $X2=2.53 $Y2=1.19
r111 19 20 1.91213 $w=1.4e-07 $l=1.545e-06 $layer=MET1_cond $X=2.385 $Y=1.19
+ $X2=0.84 $Y2=1.19
r112 17 30 145.28 $w=1.7e-07 $l=1.7e-07 $layer=licon1_POLY $count=1 $X=0.74
+ $Y=1.25 $X2=0.74 $Y2=1.25
r113 17 22 9.3 $w=1.7e-07 $l=1.7e-07 $layer=mcon $count=1 $X=0.695 $Y=1.19
+ $X2=0.695 $Y2=1.19
r114 15 35 282.021 $w=1.5e-07 $l=5.5e-07 $layer=POLY_cond $X=2.64 $Y=0.445
+ $X2=2.64 $Y2=0.995
r115 11 36 430.723 $w=1.5e-07 $l=8.4e-07 $layer=POLY_cond $X=2.61 $Y=2.165
+ $X2=2.61 $Y2=1.325
r116 5 30 38.5818 $w=3.27e-07 $l=2.11069e-07 $layer=POLY_cond $X=0.89 $Y=1.415
+ $X2=0.785 $Y2=1.25
r117 5 7 384.574 $w=1.5e-07 $l=7.5e-07 $layer=POLY_cond $X=0.89 $Y=1.415
+ $X2=0.89 $Y2=2.165
r118 1 30 38.5818 $w=3.27e-07 $l=1.86145e-07 $layer=POLY_cond $X=0.83 $Y=1.085
+ $X2=0.785 $Y2=1.25
r119 1 3 328.17 $w=1.5e-07 $l=6.4e-07 $layer=POLY_cond $X=0.83 $Y=1.085 $X2=0.83
+ $Y2=0.445
.ends

.subckt PM_SKY130_FD_SC_HD__SDFSBP_1%D 1 3 6 8 9 13
c42 13 0 1.62439e-19 $X=1.25 $Y=0.93
r43 13 14 145.28 $w=1.7e-07 $l=1.7e-07 $layer=licon1_POLY $count=1 $X=1.25
+ $Y=0.93 $X2=1.25 $Y2=0.93
r44 9 14 24.6952 $w=2.78e-07 $l=6e-07 $layer=LI1_cond $X=1.195 $Y=1.53 $X2=1.195
+ $Y2=0.93
r45 8 14 3.29269 $w=2.78e-07 $l=8e-08 $layer=LI1_cond $X=1.195 $Y=0.85 $X2=1.195
+ $Y2=0.93
r46 4 13 48.4159 $w=2.7e-07 $l=1.65e-07 $layer=POLY_cond $X=1.25 $Y=1.095
+ $X2=1.25 $Y2=0.93
r47 4 6 548.66 $w=1.5e-07 $l=1.07e-06 $layer=POLY_cond $X=1.25 $Y=1.095 $X2=1.25
+ $Y2=2.165
r48 1 13 48.4159 $w=2.7e-07 $l=1.65e-07 $layer=POLY_cond $X=1.25 $Y=0.765
+ $X2=1.25 $Y2=0.93
r49 1 3 102.827 $w=1.5e-07 $l=3.2e-07 $layer=POLY_cond $X=1.25 $Y=0.765 $X2=1.25
+ $Y2=0.445
.ends

.subckt PM_SKY130_FD_SC_HD__SDFSBP_1%A_319_21# 1 2 9 13 18 19 20 22 32 34
c73 19 0 1.59069e-19 $X=1.95 $Y=1.16
r74 32 34 0.182927 $w=3.13e-07 $l=5e-09 $layer=LI1_cond $X=2.395 $Y=1.927
+ $X2=2.4 $Y2=1.927
r75 20 22 12.4283 $w=2.53e-07 $l=2.75e-07 $layer=LI1_cond $X=2.387 $Y=0.715
+ $X2=2.387 $Y2=0.44
r76 19 36 48.9612 $w=3.3e-07 $l=2.8e-07 $layer=POLY_cond $X=1.95 $Y=1.16
+ $X2=1.67 $Y2=1.16
r77 18 19 145.28 $w=1.7e-07 $l=1.7e-07 $layer=licon1_POLY $count=1 $X=1.95
+ $Y=1.16 $X2=1.95 $Y2=1.16
r78 16 32 13.2805 $w=3.13e-07 $l=3.63e-07 $layer=LI1_cond $X=2.032 $Y=1.927
+ $X2=2.395 $Y2=1.927
r79 16 18 20.9848 $w=3.33e-07 $l=6.1e-07 $layer=LI1_cond $X=2.032 $Y=1.77
+ $X2=2.032 $Y2=1.16
r80 15 20 20.7225 $w=1.88e-07 $l=3.55e-07 $layer=LI1_cond $X=2.032 $Y=0.81
+ $X2=2.387 $Y2=0.81
r81 15 18 8.77233 $w=3.33e-07 $l=2.55e-07 $layer=LI1_cond $X=2.032 $Y=0.905
+ $X2=2.032 $Y2=1.16
r82 11 36 21.2229 $w=1.5e-07 $l=1.65e-07 $layer=POLY_cond $X=1.67 $Y=1.325
+ $X2=1.67 $Y2=1.16
r83 11 13 430.723 $w=1.5e-07 $l=8.4e-07 $layer=POLY_cond $X=1.67 $Y=1.325
+ $X2=1.67 $Y2=2.165
r84 7 36 21.2229 $w=1.5e-07 $l=1.65e-07 $layer=POLY_cond $X=1.67 $Y=0.995
+ $X2=1.67 $Y2=1.16
r85 7 9 282.021 $w=1.5e-07 $l=5.5e-07 $layer=POLY_cond $X=1.67 $Y=0.995 $X2=1.67
+ $Y2=0.445
r86 2 34 600 $w=1.7e-07 $l=1.97864e-07 $layer=licon1_PDIFF $count=1 $X=2.275
+ $Y=1.845 $X2=2.4 $Y2=1.99
r87 1 22 182 $w=1.7e-07 $l=2.60096e-07 $layer=licon1_NDIFF $count=1 $X=2.305
+ $Y=0.235 $X2=2.43 $Y2=0.44
.ends

.subckt PM_SKY130_FD_SC_HD__SDFSBP_1%CLK 7 8 10 13 15 16 17 18 19 20 26 28
c78 20 0 9.44719e-20 $X=3.45 $Y=1.19
c79 13 0 1.07242e-19 $X=3.58 $Y=0.805
r80 34 41 7.22265 $w=1.8e-07 $l=2.68e-07 $layer=LI1_cond $X=2.995 $Y=1.59
+ $X2=2.995 $Y2=1.322
r81 30 41 0.156496 $w=5.33e-07 $l=7e-09 $layer=LI1_cond $X=3.002 $Y=1.322
+ $X2=2.995 $Y2=1.322
r82 26 29 48.4159 $w=2.7e-07 $l=1.65e-07 $layer=POLY_cond $X=3.43 $Y=1.255
+ $X2=3.43 $Y2=1.42
r83 26 28 48.4159 $w=2.7e-07 $l=1.65e-07 $layer=POLY_cond $X=3.43 $Y=1.255
+ $X2=3.43 $Y2=1.09
r84 20 30 9.56863 $w=5.33e-07 $l=4.28e-07 $layer=LI1_cond $X=3.43 $Y=1.322
+ $X2=3.002 $Y2=1.322
r85 20 26 145.28 $w=1.7e-07 $l=1.7e-07 $layer=licon1_POLY $count=1 $X=3.43
+ $Y=1.255 $X2=3.43 $Y2=1.255
r86 19 34 17.2525 $w=1.78e-07 $l=2.8e-07 $layer=LI1_cond $X=2.995 $Y=1.87
+ $X2=2.995 $Y2=1.59
r87 18 41 0.111783 $w=5.33e-07 $l=5e-09 $layer=LI1_cond $X=2.99 $Y=1.322
+ $X2=2.995 $Y2=1.322
r88 17 30 11.6597 $w=1.93e-07 $l=2.05e-07 $layer=LI1_cond $X=3.002 $Y=0.85
+ $X2=3.002 $Y2=1.055
r89 15 16 47.3682 $w=2.1e-07 $l=1.5e-07 $layer=POLY_cond $X=3.52 $Y=1.62
+ $X2=3.52 $Y2=1.77
r90 15 29 102.553 $w=1.5e-07 $l=2e-07 $layer=POLY_cond $X=3.49 $Y=1.62 $X2=3.49
+ $Y2=1.42
r91 11 13 46.1489 $w=1.5e-07 $l=9e-08 $layer=POLY_cond $X=3.49 $Y=0.805 $X2=3.58
+ $Y2=0.805
r92 8 13 2.83073 $w=1.5e-07 $l=7.5e-08 $layer=POLY_cond $X=3.58 $Y=0.73 $X2=3.58
+ $Y2=0.805
r93 8 10 91.58 $w=1.5e-07 $l=2.85e-07 $layer=POLY_cond $X=3.58 $Y=0.73 $X2=3.58
+ $Y2=0.445
r94 7 16 126.927 $w=1.5e-07 $l=3.95e-07 $layer=POLY_cond $X=3.55 $Y=2.165
+ $X2=3.55 $Y2=1.77
r95 1 11 2.83073 $w=1.5e-07 $l=7.5e-08 $layer=POLY_cond $X=3.49 $Y=0.88 $X2=3.49
+ $Y2=0.805
r96 1 28 107.681 $w=1.5e-07 $l=2.1e-07 $layer=POLY_cond $X=3.49 $Y=0.88 $X2=3.49
+ $Y2=1.09
.ends

.subckt PM_SKY130_FD_SC_HD__SDFSBP_1%A_643_369# 1 2 9 13 15 16 18 20 23 27 31 33
+ 36 40 42 43 44 45 47 49 50 54 55 56 57 60 61 63 64 65 66 67 76 80 83 84
c295 84 0 1.78722e-19 $X=5.33 $Y=1.74
c296 80 0 3.22574e-20 $X=3.917 $Y=1.09
c297 76 0 2.00397e-19 $X=7.59 $Y=1.87
c298 66 0 1.66008e-19 $X=7.445 $Y=1.87
c299 64 0 1.42859e-19 $X=5.145 $Y=1.87
c300 61 0 6.90487e-20 $X=8.9 $Y=1.08
r301 83 84 145.28 $w=1.7e-07 $l=1.7e-07 $layer=licon1_POLY $count=1 $X=5.33
+ $Y=1.74 $X2=5.33 $Y2=1.74
r302 76 77 9.3 $w=1.7e-07 $l=1.7e-07 $layer=mcon $count=1 $X=7.59 $Y=1.87
+ $X2=7.59 $Y2=1.87
r303 73 84 9.3 $w=1.7e-07 $l=1.7e-07 $layer=mcon $count=1 $X=5.29 $Y=1.87
+ $X2=5.29 $Y2=1.87
r304 69 70 9.3 $w=1.7e-07 $l=1.7e-07 $layer=mcon $count=1 $X=3.91 $Y=1.87
+ $X2=3.91 $Y2=1.87
r305 67 73 0.115467 $w=2.3e-07 $l=1.45e-07 $layer=MET1_cond $X=5.435 $Y=1.87
+ $X2=5.29 $Y2=1.87
r306 66 76 0.115467 $w=2.3e-07 $l=1.45e-07 $layer=MET1_cond $X=7.445 $Y=1.87
+ $X2=7.59 $Y2=1.87
r307 66 67 2.48762 $w=1.4e-07 $l=2.01e-06 $layer=MET1_cond $X=7.445 $Y=1.87
+ $X2=5.435 $Y2=1.87
r308 65 69 0.115467 $w=2.3e-07 $l=1.45e-07 $layer=MET1_cond $X=4.055 $Y=1.87
+ $X2=3.91 $Y2=1.87
r309 64 73 0.115467 $w=2.3e-07 $l=1.45e-07 $layer=MET1_cond $X=5.145 $Y=1.87
+ $X2=5.29 $Y2=1.87
r310 64 65 1.34901 $w=1.4e-07 $l=1.09e-06 $layer=MET1_cond $X=5.145 $Y=1.87
+ $X2=4.055 $Y2=1.87
r311 63 77 6.37042 $w=4.58e-07 $l=2.45e-07 $layer=LI1_cond $X=7.835 $Y=1.725
+ $X2=7.59 $Y2=1.725
r312 61 90 48.2986 $w=2.75e-07 $l=1.65e-07 $layer=POLY_cond $X=8.897 $Y=1.08
+ $X2=8.897 $Y2=0.915
r313 60 61 145.28 $w=1.7e-07 $l=1.7e-07 $layer=licon1_POLY $count=1 $X=8.9
+ $Y=1.08 $X2=8.9 $Y2=1.08
r314 58 60 9.26965 $w=2.28e-07 $l=1.85e-07 $layer=LI1_cond $X=8.925 $Y=0.895
+ $X2=8.925 $Y2=1.08
r315 56 58 6.85974 $w=2e-07 $l=1.57242e-07 $layer=LI1_cond $X=8.81 $Y=0.795
+ $X2=8.925 $Y2=0.895
r316 56 57 44.6409 $w=1.98e-07 $l=8.05e-07 $layer=LI1_cond $X=8.81 $Y=0.795
+ $X2=8.005 $Y2=0.795
r317 55 88 48.4159 $w=2.7e-07 $l=1.65e-07 $layer=POLY_cond $X=7.92 $Y=1.16
+ $X2=7.92 $Y2=1.325
r318 54 55 145.28 $w=1.7e-07 $l=1.7e-07 $layer=licon1_POLY $count=1 $X=7.92
+ $Y=1.16 $X2=7.92 $Y2=1.16
r319 52 63 8.89075 $w=4.6e-07 $l=2.69165e-07 $layer=LI1_cond $X=7.92 $Y=1.495
+ $X2=7.835 $Y2=1.725
r320 52 54 21.8556 $w=1.68e-07 $l=3.35e-07 $layer=LI1_cond $X=7.92 $Y=1.495
+ $X2=7.92 $Y2=1.16
r321 51 57 6.87494 $w=2e-07 $l=1.36015e-07 $layer=LI1_cond $X=7.92 $Y=0.895
+ $X2=8.005 $Y2=0.795
r322 51 54 17.2888 $w=1.68e-07 $l=2.65e-07 $layer=LI1_cond $X=7.92 $Y=0.895
+ $X2=7.92 $Y2=1.16
r323 50 81 48.1214 $w=2.85e-07 $l=1.65e-07 $layer=POLY_cond $X=3.917 $Y=1.255
+ $X2=3.917 $Y2=1.42
r324 50 80 48.1214 $w=2.85e-07 $l=1.65e-07 $layer=POLY_cond $X=3.917 $Y=1.255
+ $X2=3.917 $Y2=1.09
r325 49 50 145.28 $w=1.7e-07 $l=1.7e-07 $layer=licon1_POLY $count=1 $X=3.91
+ $Y=1.255 $X2=3.91 $Y2=1.255
r326 47 70 2.91016 $w=2.6e-07 $l=9e-08 $layer=LI1_cond $X=3.865 $Y=1.775
+ $X2=3.865 $Y2=1.865
r327 47 49 23.0489 $w=2.58e-07 $l=5.2e-07 $layer=LI1_cond $X=3.865 $Y=1.775
+ $X2=3.865 $Y2=1.255
r328 46 49 16.4002 $w=2.58e-07 $l=3.7e-07 $layer=LI1_cond $X=3.865 $Y=0.885
+ $X2=3.865 $Y2=1.255
r329 44 46 7.21222 $w=1.7e-07 $l=1.67183e-07 $layer=LI1_cond $X=3.735 $Y=0.8
+ $X2=3.865 $Y2=0.885
r330 44 45 18.2674 $w=1.68e-07 $l=2.8e-07 $layer=LI1_cond $X=3.735 $Y=0.8
+ $X2=3.455 $Y2=0.8
r331 42 70 4.20357 $w=1.8e-07 $l=1.3e-07 $layer=LI1_cond $X=3.735 $Y=1.865
+ $X2=3.865 $Y2=1.865
r332 42 43 19.101 $w=1.78e-07 $l=3.1e-07 $layer=LI1_cond $X=3.735 $Y=1.865
+ $X2=3.425 $Y2=1.865
r333 38 45 6.83233 $w=1.7e-07 $l=1.28662e-07 $layer=LI1_cond $X=3.362 $Y=0.715
+ $X2=3.455 $Y2=0.8
r334 38 40 16.4865 $w=1.83e-07 $l=2.75e-07 $layer=LI1_cond $X=3.362 $Y=0.715
+ $X2=3.362 $Y2=0.44
r335 34 43 6.82373 $w=1.8e-07 $l=1.25499e-07 $layer=LI1_cond $X=3.34 $Y=1.955
+ $X2=3.425 $Y2=1.865
r336 34 36 13.3743 $w=1.68e-07 $l=2.05e-07 $layer=LI1_cond $X=3.34 $Y=1.955
+ $X2=3.34 $Y2=2.16
r337 31 90 241 $w=1.5e-07 $l=4.7e-07 $layer=POLY_cond $X=8.96 $Y=0.445 $X2=8.96
+ $Y2=0.915
r338 27 88 379.447 $w=1.5e-07 $l=7.4e-07 $layer=POLY_cond $X=7.86 $Y=2.065
+ $X2=7.86 $Y2=1.325
r339 21 83 48.4159 $w=2.7e-07 $l=1.65e-07 $layer=POLY_cond $X=5.33 $Y=1.905
+ $X2=5.33 $Y2=1.74
r340 21 23 189.723 $w=1.5e-07 $l=3.7e-07 $layer=POLY_cond $X=5.33 $Y=1.905
+ $X2=5.33 $Y2=2.275
r341 18 20 91.58 $w=1.5e-07 $l=2.85e-07 $layer=POLY_cond $X=4.94 $Y=0.73
+ $X2=4.94 $Y2=0.445
r342 17 33 5.30422 $w=1.5e-07 $l=8.3e-08 $layer=POLY_cond $X=4.075 $Y=0.805
+ $X2=3.992 $Y2=0.805
r343 16 18 26.9307 $w=1.5e-07 $l=1.06066e-07 $layer=POLY_cond $X=4.865 $Y=0.805
+ $X2=4.94 $Y2=0.73
r344 16 17 405.085 $w=1.5e-07 $l=7.9e-07 $layer=POLY_cond $X=4.865 $Y=0.805
+ $X2=4.075 $Y2=0.805
r345 13 33 20.4101 $w=1.5e-07 $l=7.88987e-08 $layer=POLY_cond $X=4 $Y=0.73
+ $X2=3.992 $Y2=0.805
r346 13 15 91.58 $w=1.5e-07 $l=2.85e-07 $layer=POLY_cond $X=4 $Y=0.73 $X2=4
+ $Y2=0.445
r347 11 33 20.4101 $w=1.5e-07 $l=7.84219e-08 $layer=POLY_cond $X=3.985 $Y=0.88
+ $X2=3.992 $Y2=0.805
r348 11 80 107.681 $w=1.5e-07 $l=2.1e-07 $layer=POLY_cond $X=3.985 $Y=0.88
+ $X2=3.985 $Y2=1.09
r349 9 81 382.011 $w=1.5e-07 $l=7.45e-07 $layer=POLY_cond $X=3.97 $Y=2.165
+ $X2=3.97 $Y2=1.42
r350 2 36 600 $w=1.7e-07 $l=3.7229e-07 $layer=licon1_PDIFF $count=1 $X=3.215
+ $Y=1.845 $X2=3.34 $Y2=2.16
r351 1 40 182 $w=1.7e-07 $l=2.60096e-07 $layer=licon1_NDIFF $count=1 $X=3.245
+ $Y=0.235 $X2=3.37 $Y2=0.44
.ends

.subckt PM_SKY130_FD_SC_HD__SDFSBP_1%A_809_369# 1 2 8 9 11 13 16 20 22 24 28 35
+ 36 39 42 43 46 49 50 57 66
c182 66 0 8.01298e-20 $X=4.327 $Y=1.09
c183 50 0 9.95379e-21 $X=8.51 $Y=1.19
c184 46 0 3.47594e-20 $X=4.37 $Y=1.19
c185 22 0 5.6211e-20 $X=8.485 $Y=1.905
c186 16 0 9.48056e-20 $X=5.36 $Y=0.445
c187 9 0 1.42859e-19 $X=5.285 $Y=1.165
c188 8 0 1.78722e-19 $X=4.615 $Y=1.84
r189 59 60 145.28 $w=1.7e-07 $l=1.7e-07 $layer=licon1_POLY $count=1 $X=8.505
+ $Y=1.74 $X2=8.505 $Y2=1.74
r190 56 57 30.474 $w=3.3e-07 $l=7.5e-08 $layer=POLY_cond $X=4.615 $Y=1.255
+ $X2=4.69 $Y2=1.255
r191 53 56 36.7209 $w=3.3e-07 $l=2.1e-07 $layer=POLY_cond $X=4.405 $Y=1.255
+ $X2=4.615 $Y2=1.255
r192 50 60 27.5584 $w=2.28e-07 $l=5.5e-07 $layer=LI1_cond $X=8.48 $Y=1.19
+ $X2=8.48 $Y2=1.74
r193 49 50 9.3 $w=1.7e-07 $l=1.7e-07 $layer=mcon $count=1 $X=8.51 $Y=1.19
+ $X2=8.51 $Y2=1.19
r194 46 67 8.46186 $w=3.23e-07 $l=2.3e-07 $layer=LI1_cond $X=4.327 $Y=1.19
+ $X2=4.327 $Y2=1.42
r195 46 66 6.15528 $w=3.23e-07 $l=1e-07 $layer=LI1_cond $X=4.327 $Y=1.19
+ $X2=4.327 $Y2=1.09
r196 46 53 145.28 $w=1.7e-07 $l=1.7e-07 $layer=licon1_POLY $count=1 $X=4.405
+ $Y=1.255 $X2=4.405 $Y2=1.255
r197 45 46 9.3 $w=1.7e-07 $l=1.7e-07 $layer=mcon $count=1 $X=4.37 $Y=1.19
+ $X2=4.37 $Y2=1.19
r198 43 45 0.115467 $w=2.3e-07 $l=1.45e-07 $layer=MET1_cond $X=4.515 $Y=1.19
+ $X2=4.37 $Y2=1.19
r199 42 49 0.115467 $w=2.3e-07 $l=1.45e-07 $layer=MET1_cond $X=8.365 $Y=1.19
+ $X2=8.51 $Y2=1.19
r200 42 43 4.76484 $w=1.4e-07 $l=3.85e-06 $layer=MET1_cond $X=8.365 $Y=1.19
+ $X2=4.515 $Y2=1.19
r201 41 66 32.9465 $w=1.68e-07 $l=5.05e-07 $layer=LI1_cond $X=4.25 $Y=0.585
+ $X2=4.25 $Y2=1.09
r202 39 41 9.16686 $w=2.23e-07 $l=1.65e-07 $layer=LI1_cond $X=4.222 $Y=0.42
+ $X2=4.222 $Y2=0.585
r203 36 67 29.9635 $w=2.73e-07 $l=7.15e-07 $layer=LI1_cond $X=4.302 $Y=2.135
+ $X2=4.302 $Y2=1.42
r204 35 36 6.01906 $w=3.43e-07 $l=1.65e-07 $layer=LI1_cond $X=4.267 $Y=2.3
+ $X2=4.267 $Y2=2.135
r205 26 28 151.266 $w=1.5e-07 $l=2.95e-07 $layer=POLY_cond $X=4.615 $Y=1.915
+ $X2=4.91 $Y2=1.915
r206 22 59 38.5406 $w=3.17e-07 $l=1.80748e-07 $layer=POLY_cond $X=8.485 $Y=1.905
+ $X2=8.452 $Y2=1.74
r207 22 24 189.723 $w=1.5e-07 $l=3.7e-07 $layer=POLY_cond $X=8.485 $Y=1.905
+ $X2=8.485 $Y2=2.275
r208 18 59 38.5406 $w=3.17e-07 $l=2.13787e-07 $layer=POLY_cond $X=8.34 $Y=1.575
+ $X2=8.452 $Y2=1.74
r209 18 20 523.021 $w=1.5e-07 $l=1.02e-06 $layer=POLY_cond $X=8.34 $Y=1.575
+ $X2=8.34 $Y2=0.555
r210 14 16 330.734 $w=1.5e-07 $l=6.45e-07 $layer=POLY_cond $X=5.36 $Y=1.09
+ $X2=5.36 $Y2=0.445
r211 11 28 2.83073 $w=1.5e-07 $l=7.5e-08 $layer=POLY_cond $X=4.91 $Y=1.99
+ $X2=4.91 $Y2=1.915
r212 11 13 91.58 $w=1.5e-07 $l=2.85e-07 $layer=POLY_cond $X=4.91 $Y=1.99
+ $X2=4.91 $Y2=2.275
r213 9 14 26.9307 $w=1.5e-07 $l=1.06066e-07 $layer=POLY_cond $X=5.285 $Y=1.165
+ $X2=5.36 $Y2=1.09
r214 9 57 305.096 $w=1.5e-07 $l=5.95e-07 $layer=POLY_cond $X=5.285 $Y=1.165
+ $X2=4.69 $Y2=1.165
r215 8 26 2.83073 $w=1.5e-07 $l=7.5e-08 $layer=POLY_cond $X=4.615 $Y=1.84
+ $X2=4.615 $Y2=1.915
r216 7 56 21.2229 $w=1.5e-07 $l=1.65e-07 $layer=POLY_cond $X=4.615 $Y=1.42
+ $X2=4.615 $Y2=1.255
r217 7 8 215.362 $w=1.5e-07 $l=4.2e-07 $layer=POLY_cond $X=4.615 $Y=1.42
+ $X2=4.615 $Y2=1.84
r218 2 35 600 $w=1.7e-07 $l=5.18122e-07 $layer=licon1_PDIFF $count=1 $X=4.045
+ $Y=1.845 $X2=4.18 $Y2=2.3
r219 1 39 182 $w=1.7e-07 $l=2.43311e-07 $layer=licon1_NDIFF $count=1 $X=4.075
+ $Y=0.235 $X2=4.21 $Y2=0.42
.ends

.subckt PM_SKY130_FD_SC_HD__SDFSBP_1%A_1129_21# 1 2 9 15 19 20 22 24 25 28 32 34
+ 38 44
c97 34 0 4.26244e-20 $X=5.792 $Y=0.72
c98 22 0 4.90363e-20 $X=6.275 $Y=0.72
c99 20 0 5.68782e-20 $X=6.01 $Y=1.74
r100 42 44 261.511 $w=1.5e-07 $l=5.1e-07 $layer=POLY_cond $X=5.84 $Y=1.065
+ $X2=5.84 $Y2=1.575
r101 38 42 40.9657 $w=3.3e-07 $l=1.35e-07 $layer=POLY_cond $X=5.81 $Y=0.93
+ $X2=5.81 $Y2=1.065
r102 38 41 40.9657 $w=3.3e-07 $l=1.35e-07 $layer=POLY_cond $X=5.81 $Y=0.93
+ $X2=5.81 $Y2=0.795
r103 37 38 145.28 $w=1.7e-07 $l=1.7e-07 $layer=licon1_POLY $count=1 $X=5.81
+ $Y=0.93 $X2=5.81 $Y2=0.93
r104 34 37 6.63049 $w=3.63e-07 $l=2.1e-07 $layer=LI1_cond $X=5.792 $Y=0.72
+ $X2=5.792 $Y2=0.93
r105 30 32 9.64836 $w=2.13e-07 $l=1.8e-07 $layer=LI1_cond $X=6.657 $Y=2.105
+ $X2=6.657 $Y2=2.285
r106 26 28 5.54059 $w=2.58e-07 $l=1.25e-07 $layer=LI1_cond $X=6.405 $Y=0.635
+ $X2=6.405 $Y2=0.51
r107 24 30 6.93832 $w=1.7e-07 $l=1.43332e-07 $layer=LI1_cond $X=6.55 $Y=2.02
+ $X2=6.657 $Y2=2.105
r108 24 25 29.6845 $w=1.68e-07 $l=4.55e-07 $layer=LI1_cond $X=6.55 $Y=2.02
+ $X2=6.095 $Y2=2.02
r109 23 34 5.2253 $w=1.7e-07 $l=1.83e-07 $layer=LI1_cond $X=5.975 $Y=0.72
+ $X2=5.792 $Y2=0.72
r110 22 26 7.21222 $w=1.7e-07 $l=1.67183e-07 $layer=LI1_cond $X=6.275 $Y=0.72
+ $X2=6.405 $Y2=0.635
r111 22 23 19.5722 $w=1.68e-07 $l=3e-07 $layer=LI1_cond $X=6.275 $Y=0.72
+ $X2=5.975 $Y2=0.72
r112 20 45 45.2517 $w=3.8e-07 $l=1.65e-07 $layer=POLY_cond $X=5.955 $Y=1.74
+ $X2=5.955 $Y2=1.905
r113 20 44 45.2517 $w=3.8e-07 $l=1.65e-07 $layer=POLY_cond $X=5.955 $Y=1.74
+ $X2=5.955 $Y2=1.575
r114 19 20 145.28 $w=1.7e-07 $l=1.7e-07 $layer=licon1_POLY $count=1 $X=6.01
+ $Y=1.74 $X2=6.01 $Y2=1.74
r115 17 25 6.81649 $w=1.7e-07 $l=1.20208e-07 $layer=LI1_cond $X=6.01 $Y=1.935
+ $X2=6.095 $Y2=2.02
r116 17 19 12.7219 $w=1.68e-07 $l=1.95e-07 $layer=LI1_cond $X=6.01 $Y=1.935
+ $X2=6.01 $Y2=1.74
r117 15 45 189.723 $w=1.5e-07 $l=3.7e-07 $layer=POLY_cond $X=5.84 $Y=2.275
+ $X2=5.84 $Y2=1.905
r118 9 41 179.468 $w=1.5e-07 $l=3.5e-07 $layer=POLY_cond $X=5.72 $Y=0.445
+ $X2=5.72 $Y2=0.795
r119 2 32 600 $w=1.7e-07 $l=2.87228e-07 $layer=licon1_PDIFF $count=1 $X=6.505
+ $Y=2.065 $X2=6.66 $Y2=2.285
r120 1 28 182 $w=1.7e-07 $l=3.31662e-07 $layer=licon1_NDIFF $count=1 $X=6.325
+ $Y=0.235 $X2=6.45 $Y2=0.51
.ends

.subckt PM_SKY130_FD_SC_HD__SDFSBP_1%A_997_413# 1 2 7 9 12 13 15 18 21 25 29 31
+ 36 38 46 47 49 50 51 55
c152 21 0 1.34667e-19 $X=7.495 $Y=2.065
c153 12 0 4.26244e-20 $X=6.44 $Y=1.095
c154 7 0 1.66008e-19 $X=6.43 $Y=1.365
r155 50 56 48.4159 $w=2.7e-07 $l=1.65e-07 $layer=POLY_cond $X=7.44 $Y=1.16
+ $X2=7.44 $Y2=1.325
r156 50 55 48.4159 $w=2.7e-07 $l=1.65e-07 $layer=POLY_cond $X=7.44 $Y=1.16
+ $X2=7.44 $Y2=0.995
r157 49 51 4.87734 $w=3.48e-07 $l=1.4e-07 $layer=LI1_cond $X=7.44 $Y=1.15
+ $X2=7.3 $Y2=1.15
r158 49 50 145.28 $w=1.7e-07 $l=1.7e-07 $layer=licon1_POLY $count=1 $X=7.44
+ $Y=1.16 $X2=7.44 $Y2=1.16
r159 47 51 33.2288 $w=2.98e-07 $l=8.65e-07 $layer=LI1_cond $X=6.435 $Y=1.125
+ $X2=7.3 $Y2=1.125
r160 44 47 3.29018 $w=4.18e-07 $l=8.5e-08 $layer=LI1_cond $X=6.35 $Y=1.185
+ $X2=6.435 $Y2=1.185
r161 44 46 6.95306 $w=4.18e-07 $l=1e-07 $layer=LI1_cond $X=6.35 $Y=1.185
+ $X2=6.25 $Y2=1.185
r162 44 45 145.28 $w=1.7e-07 $l=1.7e-07 $layer=licon1_POLY $count=1 $X=6.35
+ $Y=1.23 $X2=6.35 $Y2=1.23
r163 38 42 6.20468 $w=1.7e-07 $l=8.5e-08 $layer=LI1_cond $X=5.755 $Y=1.31
+ $X2=5.67 $Y2=1.31
r164 38 46 32.2941 $w=1.68e-07 $l=4.95e-07 $layer=LI1_cond $X=5.755 $Y=1.31
+ $X2=6.25 $Y2=1.31
r165 35 42 0.18542 $w=1.7e-07 $l=8.5e-08 $layer=LI1_cond $X=5.67 $Y=1.395
+ $X2=5.67 $Y2=1.31
r166 35 36 48.2781 $w=1.68e-07 $l=7.4e-07 $layer=LI1_cond $X=5.67 $Y=1.395
+ $X2=5.67 $Y2=2.135
r167 31 36 7.76618 $w=3.3e-07 $l=2.03101e-07 $layer=LI1_cond $X=5.585 $Y=2.3
+ $X2=5.67 $Y2=2.135
r168 31 33 16.239 $w=3.28e-07 $l=4.65e-07 $layer=LI1_cond $X=5.585 $Y=2.3
+ $X2=5.12 $Y2=2.3
r169 27 42 35.1923 $w=1.56e-07 $l=4.5e-07 $layer=LI1_cond $X=5.22 $Y=1.31
+ $X2=5.67 $Y2=1.31
r170 27 29 21.0845 $w=4.38e-07 $l=8.05e-07 $layer=LI1_cond $X=5.22 $Y=1.225
+ $X2=5.22 $Y2=0.42
r171 23 25 112.809 $w=1.5e-07 $l=2.2e-07 $layer=POLY_cond $X=6.44 $Y=0.805
+ $X2=6.66 $Y2=0.805
r172 21 56 379.447 $w=1.5e-07 $l=7.4e-07 $layer=POLY_cond $X=7.495 $Y=2.065
+ $X2=7.495 $Y2=1.325
r173 18 55 141.387 $w=1.5e-07 $l=4.4e-07 $layer=POLY_cond $X=7.495 $Y=0.555
+ $X2=7.495 $Y2=0.995
r174 13 25 2.83073 $w=1.5e-07 $l=7.5e-08 $layer=POLY_cond $X=6.66 $Y=0.73
+ $X2=6.66 $Y2=0.805
r175 13 15 91.58 $w=1.5e-07 $l=2.85e-07 $layer=POLY_cond $X=6.66 $Y=0.73
+ $X2=6.66 $Y2=0.445
r176 12 45 34.1986 $w=3.29e-07 $l=1.74284e-07 $layer=POLY_cond $X=6.44 $Y=1.095
+ $X2=6.35 $Y2=1.23
r177 11 23 2.83073 $w=1.5e-07 $l=7.5e-08 $layer=POLY_cond $X=6.44 $Y=0.88
+ $X2=6.44 $Y2=0.805
r178 11 12 110.245 $w=1.5e-07 $l=2.15e-07 $layer=POLY_cond $X=6.44 $Y=0.88
+ $X2=6.44 $Y2=1.095
r179 7 45 34.1986 $w=3.29e-07 $l=1.70367e-07 $layer=POLY_cond $X=6.43 $Y=1.365
+ $X2=6.35 $Y2=1.23
r180 7 9 466.617 $w=1.5e-07 $l=9.1e-07 $layer=POLY_cond $X=6.43 $Y=1.365
+ $X2=6.43 $Y2=2.275
r181 2 33 600 $w=1.7e-07 $l=2.94873e-07 $layer=licon1_PDIFF $count=1 $X=4.985
+ $Y=2.065 $X2=5.12 $Y2=2.3
r182 1 29 182 $w=1.7e-07 $l=2.43311e-07 $layer=licon1_NDIFF $count=1 $X=5.015
+ $Y=0.235 $X2=5.15 $Y2=0.42
.ends

.subckt PM_SKY130_FD_SC_HD__SDFSBP_1%SET_B 5 9 11 13 16 20 25 27 31 32 34 36 37
+ 43 44 48 50
c147 37 0 1.34667e-19 $X=6.87 $Y=1.53
c148 34 0 4.62344e-20 $X=6.725 $Y=1.53
c149 25 0 1.33399e-19 $X=9.9 $Y=1.835
c150 9 0 4.90363e-20 $X=7.02 $Y=0.445
c151 5 0 1.54163e-19 $X=6.915 $Y=2.275
r152 48 51 48.2986 $w=2.75e-07 $l=1.65e-07 $layer=POLY_cond $X=6.852 $Y=1.68
+ $X2=6.852 $Y2=1.845
r153 48 50 48.2986 $w=2.75e-07 $l=1.65e-07 $layer=POLY_cond $X=6.852 $Y=1.68
+ $X2=6.852 $Y2=1.515
r154 48 49 145.28 $w=1.7e-07 $l=1.7e-07 $layer=licon1_POLY $count=1 $X=6.85
+ $Y=1.68 $X2=6.85 $Y2=1.68
r155 44 59 4.86587 $w=2.23e-07 $l=9.5e-08 $layer=LI1_cond $X=8.997 $Y=1.53
+ $X2=8.997 $Y2=1.625
r156 43 44 9.3 $w=1.7e-07 $l=1.7e-07 $layer=mcon $count=1 $X=8.97 $Y=1.53
+ $X2=8.97 $Y2=1.53
r157 37 39 0.115467 $w=2.3e-07 $l=1.45e-07 $layer=MET1_cond $X=6.87 $Y=1.53
+ $X2=6.725 $Y2=1.53
r158 36 43 0.115467 $w=2.3e-07 $l=1.45e-07 $layer=MET1_cond $X=8.825 $Y=1.53
+ $X2=8.97 $Y2=1.53
r159 36 37 2.41955 $w=1.4e-07 $l=1.955e-06 $layer=MET1_cond $X=8.825 $Y=1.53
+ $X2=6.87 $Y2=1.53
r160 34 49 4.60977 $w=3.73e-07 $l=1.5e-07 $layer=LI1_cond $X=6.827 $Y=1.53
+ $X2=6.827 $Y2=1.68
r161 34 39 9.3 $w=1.7e-07 $l=1.7e-07 $layer=mcon $count=1 $X=6.725 $Y=1.53
+ $X2=6.725 $Y2=1.53
r162 31 32 145.28 $w=1.7e-07 $l=1.7e-07 $layer=licon1_POLY $count=1 $X=9.9
+ $Y=1.61 $X2=9.9 $Y2=1.61
r163 29 59 1.42499 $w=2e-07 $l=1.13e-07 $layer=LI1_cond $X=9.11 $Y=1.625
+ $X2=8.997 $Y2=1.625
r164 29 31 43.8091 $w=1.98e-07 $l=7.9e-07 $layer=LI1_cond $X=9.11 $Y=1.625
+ $X2=9.9 $Y2=1.625
r165 27 32 6.66521 $w=2.7e-07 $l=3e-08 $layer=POLY_cond $X=9.9 $Y=1.58 $X2=9.9
+ $Y2=1.61
r166 27 28 41.7507 $w=2.7e-07 $l=1.35e-07 $layer=POLY_cond $X=9.9 $Y=1.58
+ $X2=9.9 $Y2=1.445
r167 25 32 49.9891 $w=2.7e-07 $l=2.25e-07 $layer=POLY_cond $X=9.9 $Y=1.835
+ $X2=9.9 $Y2=1.61
r168 22 25 169.213 $w=1.5e-07 $l=3.3e-07 $layer=POLY_cond $X=9.57 $Y=1.91
+ $X2=9.9 $Y2=1.91
r169 18 20 53.8404 $w=1.5e-07 $l=1.05e-07 $layer=POLY_cond $X=6.915 $Y=1.29
+ $X2=7.02 $Y2=1.29
r170 16 28 512.766 $w=1.5e-07 $l=1e-06 $layer=POLY_cond $X=9.96 $Y=0.445
+ $X2=9.96 $Y2=1.445
r171 11 22 2.83073 $w=1.5e-07 $l=7.5e-08 $layer=POLY_cond $X=9.57 $Y=1.985
+ $X2=9.57 $Y2=1.91
r172 11 13 93.1867 $w=1.5e-07 $l=2.9e-07 $layer=POLY_cond $X=9.57 $Y=1.985
+ $X2=9.57 $Y2=2.275
r173 7 20 2.83073 $w=1.5e-07 $l=7.5e-08 $layer=POLY_cond $X=7.02 $Y=1.215
+ $X2=7.02 $Y2=1.29
r174 7 9 394.83 $w=1.5e-07 $l=7.7e-07 $layer=POLY_cond $X=7.02 $Y=1.215 $X2=7.02
+ $Y2=0.445
r175 5 51 220.489 $w=1.5e-07 $l=4.3e-07 $layer=POLY_cond $X=6.915 $Y=2.275
+ $X2=6.915 $Y2=1.845
r176 1 18 2.83073 $w=1.5e-07 $l=7.5e-08 $layer=POLY_cond $X=6.915 $Y=1.365
+ $X2=6.915 $Y2=1.29
r177 1 50 76.9149 $w=1.5e-07 $l=1.5e-07 $layer=POLY_cond $X=6.915 $Y=1.365
+ $X2=6.915 $Y2=1.515
.ends

.subckt PM_SKY130_FD_SC_HD__SDFSBP_1%A_1770_295# 1 2 9 11 12 15 18 21 22 24 25
+ 28 31 35 37
c101 25 0 6.90487e-20 $X=9.465 $Y=1.27
c102 15 0 1.2016e-19 $X=9.32 $Y=0.445
c103 9 0 9.95379e-21 $X=8.925 $Y=2.275
r104 33 35 3.23493 $w=2.83e-07 $l=8e-08 $layer=LI1_cond $X=10.725 $Y=0.397
+ $X2=10.805 $Y2=0.397
r105 31 37 4.14756 $w=2.2e-07 $l=1.03078e-07 $layer=LI1_cond $X=10.805 $Y=1.185
+ $X2=10.765 $Y2=1.27
r106 30 35 3.4259 $w=1.8e-07 $l=1.43e-07 $layer=LI1_cond $X=10.805 $Y=0.54
+ $X2=10.805 $Y2=0.397
r107 30 31 39.7424 $w=1.78e-07 $l=6.45e-07 $layer=LI1_cond $X=10.805 $Y=0.54
+ $X2=10.805 $Y2=1.185
r108 26 37 4.14756 $w=2.2e-07 $l=8.5e-08 $layer=LI1_cond $X=10.765 $Y=1.355
+ $X2=10.765 $Y2=1.27
r109 26 28 41.222 $w=2.58e-07 $l=9.3e-07 $layer=LI1_cond $X=10.765 $Y=1.355
+ $X2=10.765 $Y2=2.285
r110 24 37 2.28545 $w=1.7e-07 $l=1.3e-07 $layer=LI1_cond $X=10.635 $Y=1.27
+ $X2=10.765 $Y2=1.27
r111 24 25 76.3316 $w=1.68e-07 $l=1.17e-06 $layer=LI1_cond $X=10.635 $Y=1.27
+ $X2=9.465 $Y2=1.27
r112 22 40 48.4159 $w=2.7e-07 $l=1.65e-07 $layer=POLY_cond $X=9.38 $Y=1.02
+ $X2=9.38 $Y2=1.185
r113 22 39 48.4159 $w=2.7e-07 $l=1.65e-07 $layer=POLY_cond $X=9.38 $Y=1.02
+ $X2=9.38 $Y2=0.855
r114 21 22 145.28 $w=1.7e-07 $l=1.7e-07 $layer=licon1_POLY $count=1 $X=9.38
+ $Y=1.02 $X2=9.38 $Y2=1.02
r115 19 25 6.81835 $w=1.7e-07 $l=1.23386e-07 $layer=LI1_cond $X=9.377 $Y=1.185
+ $X2=9.465 $Y2=1.27
r116 19 21 10.4571 $w=1.73e-07 $l=1.65e-07 $layer=LI1_cond $X=9.377 $Y=1.185
+ $X2=9.377 $Y2=1.02
r117 18 40 148.702 $w=1.5e-07 $l=2.9e-07 $layer=POLY_cond $X=9.32 $Y=1.475
+ $X2=9.32 $Y2=1.185
r118 15 39 210.234 $w=1.5e-07 $l=4.1e-07 $layer=POLY_cond $X=9.32 $Y=0.445
+ $X2=9.32 $Y2=0.855
r119 11 18 26.9307 $w=1.5e-07 $l=1.06066e-07 $layer=POLY_cond $X=9.245 $Y=1.55
+ $X2=9.32 $Y2=1.475
r120 11 12 125.628 $w=1.5e-07 $l=2.45e-07 $layer=POLY_cond $X=9.245 $Y=1.55
+ $X2=9 $Y2=1.55
r121 7 12 26.9307 $w=1.5e-07 $l=1.06066e-07 $layer=POLY_cond $X=8.925 $Y=1.625
+ $X2=9 $Y2=1.55
r122 7 9 333.298 $w=1.5e-07 $l=6.5e-07 $layer=POLY_cond $X=8.925 $Y=1.625
+ $X2=8.925 $Y2=2.275
r123 2 28 600 $w=1.7e-07 $l=2.79464e-07 $layer=licon1_PDIFF $count=1 $X=10.585
+ $Y=2.065 $X2=10.72 $Y2=2.285
r124 1 33 182 $w=1.7e-07 $l=2.43311e-07 $layer=licon1_NDIFF $count=1 $X=10.59
+ $Y=0.235 $X2=10.725 $Y2=0.42
.ends

.subckt PM_SKY130_FD_SC_HD__SDFSBP_1%A_1587_329# 1 2 3 12 16 17 19 21 24 26 30
+ 34 37 38 39 40 44 48 51 54 56 58 59 61 65 66 68 72 76
c168 68 0 1.41057e-19 $X=8.85 $Y=1.98
c169 65 0 1.93782e-19 $X=10.38 $Y=1.69
c170 56 0 1.2016e-19 $X=9.825 $Y=0.93
r171 77 78 27.5977 $w=3.45e-07 $l=1.65e-07 $layer=POLY_cond $X=10.417 $Y=1.16
+ $X2=10.417 $Y2=1.325
r172 66 78 61.9472 $w=3.4e-07 $l=3.65e-07 $layer=POLY_cond $X=10.415 $Y=1.69
+ $X2=10.415 $Y2=1.325
r173 65 66 145.28 $w=1.7e-07 $l=1.7e-07 $layer=licon1_POLY $count=1 $X=10.38
+ $Y=1.69 $X2=10.38 $Y2=1.69
r174 63 65 10.7387 $w=2.18e-07 $l=2.05e-07 $layer=LI1_cond $X=10.355 $Y=1.895
+ $X2=10.355 $Y2=1.69
r175 62 72 6.25164 $w=1.7e-07 $l=1.08e-07 $layer=LI1_cond $X=9.91 $Y=1.98
+ $X2=9.802 $Y2=1.98
r176 61 63 6.96323 $w=1.7e-07 $l=1.46458e-07 $layer=LI1_cond $X=10.245 $Y=1.98
+ $X2=10.355 $Y2=1.895
r177 61 62 21.8556 $w=1.68e-07 $l=3.35e-07 $layer=LI1_cond $X=10.245 $Y=1.98
+ $X2=9.91 $Y2=1.98
r178 59 77 38.4695 $w=3.45e-07 $l=2.3e-07 $layer=POLY_cond $X=10.417 $Y=0.93
+ $X2=10.417 $Y2=1.16
r179 59 76 46.3655 $w=3.45e-07 $l=1.65e-07 $layer=POLY_cond $X=10.417 $Y=0.93
+ $X2=10.417 $Y2=0.765
r180 58 59 145.28 $w=1.7e-07 $l=1.7e-07 $layer=licon1_POLY $count=1 $X=10.38
+ $Y=0.93 $X2=10.38 $Y2=0.93
r181 56 58 36.2086 $w=1.68e-07 $l=5.55e-07 $layer=LI1_cond $X=9.825 $Y=0.93
+ $X2=10.38 $Y2=0.93
r182 52 72 0.512231 $w=2.15e-07 $l=8.5e-08 $layer=LI1_cond $X=9.802 $Y=2.065
+ $X2=9.802 $Y2=1.98
r183 52 54 11.7924 $w=2.13e-07 $l=2.2e-07 $layer=LI1_cond $X=9.802 $Y=2.065
+ $X2=9.802 $Y2=2.285
r184 51 56 6.81649 $w=1.7e-07 $l=1.20208e-07 $layer=LI1_cond $X=9.74 $Y=0.845
+ $X2=9.825 $Y2=0.93
r185 50 51 26.0963 $w=1.68e-07 $l=4e-07 $layer=LI1_cond $X=9.74 $Y=0.445
+ $X2=9.74 $Y2=0.845
r186 49 68 0.716491 $w=1.7e-07 $l=8.5e-08 $layer=LI1_cond $X=8.935 $Y=1.98
+ $X2=8.85 $Y2=1.98
r187 48 72 6.25164 $w=1.7e-07 $l=1.07e-07 $layer=LI1_cond $X=9.695 $Y=1.98
+ $X2=9.802 $Y2=1.98
r188 48 49 49.5829 $w=1.68e-07 $l=7.6e-07 $layer=LI1_cond $X=9.695 $Y=1.98
+ $X2=8.935 $Y2=1.98
r189 44 50 6.81649 $w=1.7e-07 $l=1.20208e-07 $layer=LI1_cond $X=9.655 $Y=0.36
+ $X2=9.74 $Y2=0.445
r190 44 46 70.4599 $w=1.68e-07 $l=1.08e-06 $layer=LI1_cond $X=9.655 $Y=0.36
+ $X2=8.575 $Y2=0.36
r191 40 68 20.3551 $w=1.68e-07 $l=3.12e-07 $layer=LI1_cond $X=8.85 $Y=2.292
+ $X2=8.85 $Y2=1.98
r192 40 42 18.9207 $w=3.33e-07 $l=5.5e-07 $layer=LI1_cond $X=8.765 $Y=2.292
+ $X2=8.215 $Y2=2.292
r193 36 66 2.54577 $w=3.4e-07 $l=1.5e-08 $layer=POLY_cond $X=10.415 $Y=1.705
+ $X2=10.415 $Y2=1.69
r194 36 37 47.1551 $w=3.4e-07 $l=1.7e-07 $layer=POLY_cond $X=10.415 $Y=1.705
+ $X2=10.415 $Y2=1.875
r195 32 39 37.0704 $w=1.5e-07 $l=1.65e-07 $layer=POLY_cond $X=12.395 $Y=1.325
+ $X2=12.395 $Y2=1.16
r196 32 34 394.83 $w=1.5e-07 $l=7.7e-07 $layer=POLY_cond $X=12.395 $Y=1.325
+ $X2=12.395 $Y2=2.095
r197 28 39 37.0704 $w=1.5e-07 $l=1.65e-07 $layer=POLY_cond $X=12.395 $Y=0.995
+ $X2=12.395 $Y2=1.16
r198 28 30 282.021 $w=1.5e-07 $l=5.5e-07 $layer=POLY_cond $X=12.395 $Y=0.995
+ $X2=12.395 $Y2=0.445
r199 27 38 10.9545 $w=3.3e-07 $l=7.5e-08 $layer=POLY_cond $X=11.53 $Y=1.16
+ $X2=11.455 $Y2=1.16
r200 26 39 5.03009 $w=3.3e-07 $l=7.5e-08 $layer=POLY_cond $X=12.32 $Y=1.16
+ $X2=12.395 $Y2=1.16
r201 26 27 138.14 $w=3.3e-07 $l=7.9e-07 $layer=POLY_cond $X=12.32 $Y=1.16
+ $X2=11.53 $Y2=1.16
r202 22 38 53.02 $w=1.5e-07 $l=1.65e-07 $layer=POLY_cond $X=11.455 $Y=1.325
+ $X2=11.455 $Y2=1.16
r203 22 24 338.426 $w=1.5e-07 $l=6.6e-07 $layer=POLY_cond $X=11.455 $Y=1.325
+ $X2=11.455 $Y2=1.985
r204 19 38 53.02 $w=1.5e-07 $l=1.65e-07 $layer=POLY_cond $X=11.455 $Y=0.995
+ $X2=11.455 $Y2=1.16
r205 19 21 139.78 $w=1.5e-07 $l=4.35e-07 $layer=POLY_cond $X=11.455 $Y=0.995
+ $X2=11.455 $Y2=0.56
r206 18 77 3.89586 $w=3.3e-07 $l=1.73e-07 $layer=POLY_cond $X=10.59 $Y=1.16
+ $X2=10.417 $Y2=1.16
r207 17 38 10.9545 $w=3.3e-07 $l=7.5e-08 $layer=POLY_cond $X=11.38 $Y=1.16
+ $X2=11.455 $Y2=1.16