* File: sky130_fd_sc_hd__sdfbbn_1.pex.spice
* Created: Thu Aug 27 14:45:18 2020
* Program "Calibre xRC"
* Version "v2018.4_34.26"
* Nominal Temperature: 27C
* Circuit Temperature: 27C
* 
.subckt PM_SKY130_FD_SC_HD__SDFBBN_1%CLK_N 4 5 7 8 10 13 17 19 20 24 26
c45 13 0 2.71124e-20 $X=0.47 $Y=0.805
r46 24 27 48.4159 $w=2.7e-07 $l=1.65e-07 $layer=POLY_cond $X=0.24 $Y=1.235
+ $X2=0.24 $Y2=1.4
r47 24 26 48.4159 $w=2.7e-07 $l=1.65e-07 $layer=POLY_cond $X=0.24 $Y=1.235
+ $X2=0.24 $Y2=1.07
r48 19 20 11.1952 $w=3.48e-07 $l=3.4e-07 $layer=LI1_cond $X=0.26 $Y=1.19
+ $X2=0.26 $Y2=1.53
r49 19 24 145.28 $w=1.7e-07 $l=1.7e-07 $layer=licon1_POLY $count=1 $X=0.24
+ $Y=1.235 $X2=0.24 $Y2=1.235
r50 15 17 87.1702 $w=1.5e-07 $l=1.7e-07 $layer=POLY_cond $X=0.3 $Y=1.665
+ $X2=0.47 $Y2=1.665
r51 11 13 87.1702 $w=1.5e-07 $l=1.7e-07 $layer=POLY_cond $X=0.3 $Y=0.805
+ $X2=0.47 $Y2=0.805
r52 8 17 2.83073 $w=1.5e-07 $l=7.5e-08 $layer=POLY_cond $X=0.47 $Y=1.74 $X2=0.47
+ $Y2=1.665
r53 8 10 126.927 $w=1.5e-07 $l=3.95e-07 $layer=POLY_cond $X=0.47 $Y=1.74
+ $X2=0.47 $Y2=2.135
r54 5 13 2.83073 $w=1.5e-07 $l=7.5e-08 $layer=POLY_cond $X=0.47 $Y=0.73 $X2=0.47
+ $Y2=0.805
r55 5 7 91.58 $w=1.5e-07 $l=2.85e-07 $layer=POLY_cond $X=0.47 $Y=0.73 $X2=0.47
+ $Y2=0.445
r56 4 15 2.83073 $w=1.5e-07 $l=7.5e-08 $layer=POLY_cond $X=0.3 $Y=1.59 $X2=0.3
+ $Y2=1.665
r57 4 27 97.4255 $w=1.5e-07 $l=1.9e-07 $layer=POLY_cond $X=0.3 $Y=1.59 $X2=0.3
+ $Y2=1.4
r58 1 11 2.83073 $w=1.5e-07 $l=7.5e-08 $layer=POLY_cond $X=0.3 $Y=0.88 $X2=0.3
+ $Y2=0.805
r59 1 26 97.4255 $w=1.5e-07 $l=1.9e-07 $layer=POLY_cond $X=0.3 $Y=0.88 $X2=0.3
+ $Y2=1.07
.ends

.subckt PM_SKY130_FD_SC_HD__SDFBBN_1%A_27_47# 1 2 9 13 17 19 20 23 26 27 29 32
+ 36 40 41 42 46 47 49 51 52 55 58 59 61 62 63 66 70 71 74 81 84
c286 84 0 9.50836e-20 $X=5.165 $Y=0.93
c287 70 0 1.98367e-19 $X=5.24 $Y=0.85
c288 63 0 8.87067e-20 $X=5.385 $Y=1.19
c289 61 0 9.24143e-20 $X=5.277 $Y=1.12
c290 49 0 1.22107e-19 $X=8.937 $Y=1.305
c291 47 0 1.7288e-19 $X=8.615 $Y=0.87
c292 17 0 4.75142e-20 $X=4.59 $Y=2.275
r293 84 87 39.0501 $w=3e-07 $l=1.65e-07 $layer=POLY_cond $X=5.15 $Y=0.93
+ $X2=5.15 $Y2=1.095
r294 84 86 47.9795 $w=3e-07 $l=1.65e-07 $layer=POLY_cond $X=5.15 $Y=0.93
+ $X2=5.15 $Y2=0.765
r295 78 81 31.1043 $w=2.7e-07 $l=1.4e-07 $layer=POLY_cond $X=0.75 $Y=1.235
+ $X2=0.89 $Y2=1.235
r296 78 79 145.28 $w=1.7e-07 $l=1.7e-07 $layer=licon1_POLY $count=1 $X=0.75
+ $Y=1.235 $X2=0.75 $Y2=1.235
r297 74 75 9.3 $w=1.7e-07 $l=1.7e-07 $layer=mcon $count=1 $X=8.51 $Y=1.19
+ $X2=8.51 $Y2=1.19
r298 71 84 145.28 $w=1.7e-07 $l=1.7e-07 $layer=licon1_POLY $count=1 $X=5.165
+ $Y=0.93 $X2=5.165 $Y2=0.93
r299 70 72 0.0661242 $w=2.9e-07 $l=1.15e-07 $layer=MET1_cond $X=5.24 $Y=0.85
+ $X2=5.24 $Y2=0.965
r300 70 71 9.3 $w=1.7e-07 $l=1.7e-07 $layer=mcon $count=1 $X=5.24 $Y=0.85
+ $X2=5.24 $Y2=0.85
r301 66 79 19.2909 $w=2.28e-07 $l=3.85e-07 $layer=LI1_cond $X=0.72 $Y=0.85
+ $X2=0.72 $Y2=1.235
r302 65 66 9.3 $w=1.7e-07 $l=1.7e-07 $layer=mcon $count=1 $X=0.69 $Y=0.85
+ $X2=0.69 $Y2=0.85
r303 62 74 0.115467 $w=2.3e-07 $l=1.45e-07 $layer=MET1_cond $X=8.365 $Y=1.19
+ $X2=8.51 $Y2=1.19
r304 62 63 3.68811 $w=1.4e-07 $l=2.98e-06 $layer=MET1_cond $X=8.365 $Y=1.19
+ $X2=5.385 $Y2=1.19
r305 61 63 0.0739737 $w=1.4e-07 $l=1.38651e-07 $layer=MET1_cond $X=5.277 $Y=1.12
+ $X2=5.385 $Y2=1.19
r306 61 72 0.110669 $w=2.15e-07 $l=1.55e-07 $layer=MET1_cond $X=5.277 $Y=1.12
+ $X2=5.277 $Y2=0.965
r307 59 65 0.115467 $w=2.3e-07 $l=1.45e-07 $layer=MET1_cond $X=0.835 $Y=0.85
+ $X2=0.69 $Y2=0.85
r308 58 70 0.0513368 $w=1.4e-07 $l=1.45e-07 $layer=MET1_cond $X=5.095 $Y=0.85
+ $X2=5.24 $Y2=0.85
r309 58 59 5.27227 $w=1.4e-07 $l=4.26e-06 $layer=MET1_cond $X=5.095 $Y=0.85
+ $X2=0.835 $Y2=0.85
r310 57 79 28.0595 $w=2.28e-07 $l=5.6e-07 $layer=LI1_cond $X=0.72 $Y=1.795
+ $X2=0.72 $Y2=1.235
r311 56 66 2.25478 $w=2.28e-07 $l=4.5e-08 $layer=LI1_cond $X=0.72 $Y=0.805
+ $X2=0.72 $Y2=0.85
r312 52 94 40.9657 $w=3.3e-07 $l=1.35e-07 $layer=POLY_cond $X=8.955 $Y=1.74
+ $X2=8.955 $Y2=1.875
r313 51 52 145.28 $w=1.7e-07 $l=1.7e-07 $layer=licon1_POLY $count=1 $X=8.955
+ $Y=1.74 $X2=8.955 $Y2=1.74
r314 49 75 26.3101 $w=1.78e-07 $l=4.27e-07 $layer=LI1_cond $X=8.937 $Y=1.215
+ $X2=8.51 $Y2=1.215
r315 49 51 23.5344 $w=2.03e-07 $l=4.35e-07 $layer=LI1_cond $X=8.937 $Y=1.305
+ $X2=8.937 $Y2=1.74
r316 47 88 20.9834 $w=3.3e-07 $l=1.2e-07 $layer=POLY_cond $X=8.615 $Y=0.87
+ $X2=8.495 $Y2=0.87
r317 46 75 10.3113 $w=2.83e-07 $l=2.55e-07 $layer=LI1_cond $X=8.562 $Y=0.87
+ $X2=8.562 $Y2=1.125
r318 46 47 145.28 $w=1.7e-07 $l=1.7e-07 $layer=licon1_POLY $count=1 $X=8.615
+ $Y=0.87 $X2=8.615 $Y2=0.87
r319 43 55 4.25188 $w=1.7e-07 $l=1.25e-07 $layer=LI1_cond $X=0.345 $Y=1.88
+ $X2=0.22 $Y2=1.88
r320 42 57 7.01789 $w=1.7e-07 $l=1.51658e-07 $layer=LI1_cond $X=0.605 $Y=1.88
+ $X2=0.72 $Y2=1.795
r321 42 43 16.9626 $w=1.68e-07 $l=2.6e-07 $layer=LI1_cond $X=0.605 $Y=1.88
+ $X2=0.345 $Y2=1.88
r322 40 56 7.01789 $w=1.7e-07 $l=1.51658e-07 $layer=LI1_cond $X=0.605 $Y=0.72
+ $X2=0.72 $Y2=0.805
r323 40 41 16.9626 $w=1.68e-07 $l=2.6e-07 $layer=LI1_cond $X=0.605 $Y=0.72
+ $X2=0.345 $Y2=0.72
r324 34 41 7.14316 $w=1.7e-07 $l=1.62019e-07 $layer=LI1_cond $X=0.22 $Y=0.635
+ $X2=0.345 $Y2=0.72
r325 34 36 5.76222 $w=2.48e-07 $l=1.25e-07 $layer=LI1_cond $X=0.22 $Y=0.635
+ $X2=0.22 $Y2=0.51
r326 32 94 205.106 $w=1.5e-07 $l=4e-07 $layer=POLY_cond $X=8.925 $Y=2.275
+ $X2=8.925 $Y2=1.875
r327 27 88 21.2229 $w=1.5e-07 $l=1.65e-07 $layer=POLY_cond $X=8.495 $Y=0.705
+ $X2=8.495 $Y2=0.87
r328 27 29 93.1867 $w=1.5e-07 $l=2.9e-07 $layer=POLY_cond $X=8.495 $Y=0.705
+ $X2=8.495 $Y2=0.415
r329 26 87 48.5235 $w=2.05e-07 $l=1.5e-07 $layer=POLY_cond $X=5.102 $Y=1.245
+ $X2=5.102 $Y2=1.095
r330 23 86 179.468 $w=1.5e-07 $l=3.5e-07 $layer=POLY_cond $X=5.075 $Y=0.415
+ $X2=5.075 $Y2=0.765
r331 19 26 27.7801 $w=1.5e-07 $l=1.34365e-07 $layer=POLY_cond $X=5 $Y=1.32
+ $X2=5.102 $Y2=1.245
r332 19 20 171.777 $w=1.5e-07 $l=3.35e-07 $layer=POLY_cond $X=5 $Y=1.32
+ $X2=4.665 $Y2=1.32
r333 15 20 26.9307 $w=1.5e-07 $l=1.06066e-07 $layer=POLY_cond $X=4.59 $Y=1.395
+ $X2=4.665 $Y2=1.32
r334 15 17 451.234 $w=1.5e-07 $l=8.8e-07 $layer=POLY_cond $X=4.59 $Y=1.395
+ $X2=4.59 $Y2=2.275
r335 11 81 16.5046 $w=1.5e-07 $l=1.35e-07 $layer=POLY_cond $X=0.89 $Y=1.37
+ $X2=0.89 $Y2=1.235
r336 11 13 392.266 $w=1.5e-07 $l=7.65e-07 $layer=POLY_cond $X=0.89 $Y=1.37
+ $X2=0.89 $Y2=2.135
r337 7 81 16.5046 $w=1.5e-07 $l=1.35e-07 $layer=POLY_cond $X=0.89 $Y=1.1
+ $X2=0.89 $Y2=1.235
r338 7 9 335.862 $w=1.5e-07 $l=6.55e-07 $layer=POLY_cond $X=0.89 $Y=1.1 $X2=0.89
+ $Y2=0.445
r339 2 55 300 $w=1.7e-07 $l=1.97864e-07 $layer=licon1_PDIFF $count=2 $X=0.135
+ $Y=1.815 $X2=0.26 $Y2=1.96
r340 1 36 182 $w=1.7e-07 $l=3.31662e-07 $layer=licon1_NDIFF $count=1 $X=0.135
+ $Y=0.235 $X2=0.26 $Y2=0.51
.ends

.subckt PM_SKY130_FD_SC_HD__SDFBBN_1%SCD 1 2 3 5 8 12 13 19
c52 12 0 1.76673e-19 $X=1.61 $Y=1.19
c53 8 0 1.50346e-19 $X=1.83 $Y=2.135
c54 1 0 1.68616e-20 $X=1.642 $Y=0.88
r55 17 19 5.86464 $w=2.63e-07 $l=3.2e-08 $layer=POLY_cond $X=1.61 $Y=1.49
+ $X2=1.642 $Y2=1.49
r56 13 17 145.28 $w=1.7e-07 $l=1.7e-07 $layer=licon1_POLY $count=1 $X=1.61
+ $Y=1.49 $X2=1.61 $Y2=1.49
r57 12 13 12.3476 $w=2.78e-07 $l=3e-07 $layer=LI1_cond $X=1.555 $Y=1.19
+ $X2=1.555 $Y2=1.49
r58 6 19 34.4548 $w=2.63e-07 $l=2.57612e-07 $layer=POLY_cond $X=1.83 $Y=1.655
+ $X2=1.642 $Y2=1.49
r59 6 8 246.128 $w=1.5e-07 $l=4.8e-07 $layer=POLY_cond $X=1.83 $Y=1.655 $X2=1.83
+ $Y2=2.135
r60 3 11 0.795936 $w=1.5e-07 $l=7.5e-08 $layer=POLY_cond $X=1.83 $Y=0.73
+ $X2=1.83 $Y2=0.805
r61 3 5 91.58 $w=1.5e-07 $l=2.85e-07 $layer=POLY_cond $X=1.83 $Y=0.73 $X2=1.83
+ $Y2=0.445
r62 2 19 12.4247 $w=1.75e-07 $l=1.65e-07 $layer=POLY_cond $X=1.642 $Y=1.325
+ $X2=1.642 $Y2=1.49
r63 1 11 65.6638 $w=1.38e-07 $l=1.88e-07 $layer=POLY_cond $X=1.642 $Y=0.805
+ $X2=1.83 $Y2=0.805
r64 1 2 177.918 $w=1.75e-07 $l=4.45e-07 $layer=POLY_cond $X=1.642 $Y=0.88
+ $X2=1.642 $Y2=1.325
.ends

.subckt PM_SKY130_FD_SC_HD__SDFBBN_1%A_423_315# 1 2 7 9 10 11 14 17 21 23 24 25
+ 27 28 34 38 39 42
c113 39 0 8.91744e-20 $X=2.845 $Y=1.65
c114 38 0 1.01009e-19 $X=3.615 $Y=0.93
c115 27 0 9.78226e-20 $X=3.517 $Y=1.095
c116 11 0 5.57791e-20 $X=2.265 $Y=1.65
r117 38 42 48.4159 $w=2.7e-07 $l=1.65e-07 $layer=POLY_cond $X=3.615 $Y=0.93
+ $X2=3.615 $Y2=0.765
r118 37 38 145.28 $w=1.7e-07 $l=1.7e-07 $layer=licon1_POLY $count=1 $X=3.615
+ $Y=0.93 $X2=3.615 $Y2=0.93
r119 35 37 8.88742 $w=3.02e-07 $l=2.2e-07 $layer=LI1_cond $X=3.6 $Y=0.71 $X2=3.6
+ $Y2=0.93
r120 33 34 5.66838 $w=3.28e-07 $l=8.5e-08 $layer=LI1_cond $X=3.055 $Y=1.74
+ $X2=3.14 $Y2=1.74
r121 31 39 16.1264 $w=2.69e-07 $l=9e-08 $layer=POLY_cond $X=2.845 $Y=1.74
+ $X2=2.845 $Y2=1.65
r122 30 33 7.33373 $w=3.28e-07 $l=2.1e-07 $layer=LI1_cond $X=2.845 $Y=1.74
+ $X2=3.055 $Y2=1.74
r123 30 31 145.28 $w=1.7e-07 $l=1.7e-07 $layer=licon1_POLY $count=1 $X=2.845
+ $Y=1.74 $X2=2.845 $Y2=1.74
r124 27 37 8.80496 $w=3.02e-07 $l=2.02287e-07 $layer=LI1_cond $X=3.517 $Y=1.095
+ $X2=3.6 $Y2=0.93
r125 27 28 30.4208 $w=1.73e-07 $l=4.8e-07 $layer=LI1_cond $X=3.517 $Y=1.095
+ $X2=3.517 $Y2=1.575
r126 25 28 6.81835 $w=1.7e-07 $l=1.22327e-07 $layer=LI1_cond $X=3.43 $Y=1.66
+ $X2=3.517 $Y2=1.575
r127 25 34 18.9198 $w=1.68e-07 $l=2.9e-07 $layer=LI1_cond $X=3.43 $Y=1.66
+ $X2=3.14 $Y2=1.66
r128 23 35 4.10007 $w=1.7e-07 $l=1.7e-07 $layer=LI1_cond $X=3.43 $Y=0.71 $X2=3.6
+ $Y2=0.71
r129 23 24 25.4438 $w=1.68e-07 $l=3.9e-07 $layer=LI1_cond $X=3.43 $Y=0.71
+ $X2=3.04 $Y2=0.71
r130 19 33 4.62375 $w=1.7e-07 $l=1.65e-07 $layer=LI1_cond $X=3.055 $Y=1.905
+ $X2=3.055 $Y2=1.74
r131 19 21 25.7701 $w=1.68e-07 $l=3.95e-07 $layer=LI1_cond $X=3.055 $Y=1.905
+ $X2=3.055 $Y2=2.3
r132 15 24 6.81649 $w=1.7e-07 $l=1.20208e-07 $layer=LI1_cond $X=2.955 $Y=0.625
+ $X2=3.04 $Y2=0.71
r133 15 17 10.1123 $w=1.68e-07 $l=1.55e-07 $layer=LI1_cond $X=2.955 $Y=0.625
+ $X2=2.955 $Y2=0.47
r134 14 42 102.827 $w=1.5e-07 $l=3.2e-07 $layer=POLY_cond $X=3.6 $Y=0.445
+ $X2=3.6 $Y2=0.765
r135 10 39 16.4183 $w=1.5e-07 $l=1.35e-07 $layer=POLY_cond $X=2.71 $Y=1.65
+ $X2=2.845 $Y2=1.65
r136 10 11 228.181 $w=1.5e-07 $l=4.45e-07 $layer=POLY_cond $X=2.71 $Y=1.65
+ $X2=2.265 $Y2=1.65
r137 7 11 26.9307 $w=1.5e-07 $l=1.06066e-07 $layer=POLY_cond $X=2.19 $Y=1.725
+ $X2=2.265 $Y2=1.65
r138 7 9 131.747 $w=1.5e-07 $l=4.1e-07 $layer=POLY_cond $X=2.19 $Y=1.725
+ $X2=2.19 $Y2=2.135
r139 2 21 600 $w=1.7e-07 $l=2.90861e-07 $layer=licon1_PDIFF $count=1 $X=2.93
+ $Y=2.065 $X2=3.055 $Y2=2.3
r140 1 17 182 $w=1.7e-07 $l=2.90861e-07 $layer=licon1_NDIFF $count=1 $X=2.83
+ $Y=0.235 $X2=2.955 $Y2=0.47
.ends

.subckt PM_SKY130_FD_SC_HD__SDFBBN_1%SCE 1 3 4 6 8 10 12 13 15 16 18 20 21 24 26
+ 27 28 29 34 37 44
c115 34 0 1.20894e-19 $X=2.242 $Y=0.81
r116 42 44 2.09535 $w=2.18e-07 $l=4e-08 $layer=LI1_cond $X=2.045 $Y=1.15
+ $X2=2.045 $Y2=1.19
r117 38 42 3.19822 $w=2.2e-07 $l=1.68e-07 $layer=LI1_cond $X=2.045 $Y=0.982
+ $X2=2.045 $Y2=1.15
r118 36 37 145.28 $w=1.7e-07 $l=1.7e-07 $layer=licon1_POLY $count=1 $X=2.23
+ $Y=0.985 $X2=2.23 $Y2=0.985
r119 34 36 28.4007 $w=2.97e-07 $l=1.75e-07 $layer=POLY_cond $X=2.242 $Y=0.81
+ $X2=2.242 $Y2=0.985
r120 28 37 5.50421 $w=3.33e-07 $l=1.6e-07 $layer=LI1_cond $X=2.07 $Y=0.982
+ $X2=2.23 $Y2=0.982
r121 28 38 0.860032 $w=3.33e-07 $l=2.5e-08 $layer=LI1_cond $X=2.07 $Y=0.982
+ $X2=2.045 $Y2=0.982
r122 28 29 16.658 $w=2.18e-07 $l=3.18e-07 $layer=LI1_cond $X=2.045 $Y=1.212
+ $X2=2.045 $Y2=1.53
r123 28 44 1.15244 $w=2.18e-07 $l=2.2e-08 $layer=LI1_cond $X=2.045 $Y=1.212
+ $X2=2.045 $Y2=1.19
r124 27 38 15.9771 $w=2.18e-07 $l=3.05e-07 $layer=LI1_cond $X=2.045 $Y=0.51
+ $X2=2.045 $Y2=0.815
r125 22 24 51.2766 $w=1.5e-07 $l=1e-07 $layer=POLY_cond $X=3.165 $Y=1.33
+ $X2=3.265 $Y2=1.33
r126 18 20 93.1867 $w=1.5e-07 $l=2.9e-07 $layer=POLY_cond $X=3.685 $Y=1.985
+ $X2=3.685 $Y2=2.275
r127 17 26 5.30422 $w=1.5e-07 $l=7.5e-08 $layer=POLY_cond $X=3.34 $Y=1.91
+ $X2=3.265 $Y2=1.91
r128 16 18 26.9307 $w=1.5e-07 $l=1.06066e-07 $layer=POLY_cond $X=3.61 $Y=1.91
+ $X2=3.685 $Y2=1.985
r129 16 17 138.447 $w=1.5e-07 $l=2.7e-07 $layer=POLY_cond $X=3.61 $Y=1.91
+ $X2=3.34 $Y2=1.91
r130 13 26 20.4101 $w=1.5e-07 $l=7.5e-08 $layer=POLY_cond $X=3.265 $Y=1.985
+ $X2=3.265 $Y2=1.91
r131 13 15 93.1867 $w=1.5e-07 $l=2.9e-07 $layer=POLY_cond $X=3.265 $Y=1.985
+ $X2=3.265 $Y2=2.275
r132 12 26 20.4101 $w=1.5e-07 $l=7.5e-08 $layer=POLY_cond $X=3.265 $Y=1.835
+ $X2=3.265 $Y2=1.91
r133 11 24 2.83073 $w=1.5e-07 $l=7.5e-08 $layer=POLY_cond $X=3.265 $Y=1.405
+ $X2=3.265 $Y2=1.33
r134 11 12 220.489 $w=1.5e-07 $l=4.3e-07 $layer=POLY_cond $X=3.265 $Y=1.405
+ $X2=3.265 $Y2=1.835
r135 10 22 2.83073 $w=1.5e-07 $l=7.5e-08 $layer=POLY_cond $X=3.165 $Y=1.255
+ $X2=3.165 $Y2=1.33
r136 9 21 20.4101 $w=1.5e-07 $l=7.5e-08 $layer=POLY_cond $X=3.165 $Y=0.885
+ $X2=3.165 $Y2=0.81
r137 9 10 189.723 $w=1.5e-07 $l=3.7e-07 $layer=POLY_cond $X=3.165 $Y=0.885
+ $X2=3.165 $Y2=1.255
r138 6 21 20.4101 $w=1.5e-07 $l=7.5e-08 $layer=POLY_cond $X=3.165 $Y=0.735
+ $X2=3.165 $Y2=0.81
r139 6 8 93.1867 $w=1.5e-07 $l=2.9e-07 $layer=POLY_cond $X=3.165 $Y=0.735
+ $X2=3.165 $Y2=0.445
r140 5 34 18.7323 $w=1.5e-07 $l=1.53e-07 $layer=POLY_cond $X=2.395 $Y=0.81
+ $X2=2.242 $Y2=0.81
r141 4 21 5.30422 $w=1.5e-07 $l=7.5e-08 $layer=POLY_cond $X=3.09 $Y=0.81
+ $X2=3.165 $Y2=0.81
r142 4 5 356.372 $w=1.5e-07 $l=6.95e-07 $layer=POLY_cond $X=3.09 $Y=0.81
+ $X2=2.395 $Y2=0.81
r143 1 34 23.9601 $w=2.97e-07 $l=9.75961e-08 $layer=POLY_cond $X=2.19 $Y=0.735
+ $X2=2.242 $Y2=0.81
r144 1 3 93.1867 $w=1.5e-07 $l=2.9e-07 $layer=POLY_cond $X=2.19 $Y=0.735
+ $X2=2.19 $Y2=0.445
.ends

.subckt PM_SKY130_FD_SC_HD__SDFBBN_1%D 3 7 9 10 18 20
r57 17 18 15.5522 $w=2.7e-07 $l=7e-08 $layer=POLY_cond $X=4.035 $Y=1.49
+ $X2=4.105 $Y2=1.49
r58 14 17 21.1065 $w=2.7e-07 $l=9.5e-08 $layer=POLY_cond $X=3.94 $Y=1.49
+ $X2=4.035 $Y2=1.49
r59 10 20 26.2365 $w=2.33e-07 $l=5.35e-07 $layer=LI1_cond $X=3.942 $Y=2.21
+ $X2=3.942 $Y2=1.675
r60 9 20 7.99605 $w=3.13e-07 $l=1.85997e-07 $layer=LI1_cond $X=3.94 $Y=1.49
+ $X2=3.942 $Y2=1.675
r61 9 14 145.28 $w=1.7e-07 $l=1.7e-07 $layer=licon1_POLY $count=1 $X=3.94
+ $Y=1.49 $X2=3.94 $Y2=1.49
r62 5 18 16.5046 $w=1.5e-07 $l=1.35e-07 $layer=POLY_cond $X=4.105 $Y=1.625
+ $X2=4.105 $Y2=1.49
r63 5 7 333.298 $w=1.5e-07 $l=6.5e-07 $layer=POLY_cond $X=4.105 $Y=1.625
+ $X2=4.105 $Y2=2.275
r64 1 17 16.5046 $w=1.5e-07 $l=1.35e-07 $layer=POLY_cond $X=4.035 $Y=1.355
+ $X2=4.035 $Y2=1.49
r65 1 3 466.617 $w=1.5e-07 $l=9.1e-07 $layer=POLY_cond $X=4.035 $Y=1.355
+ $X2=4.035 $Y2=0.445
.ends

.subckt PM_SKY130_FD_SC_HD__SDFBBN_1%A_193_47# 1 2 7 9 12 18 20 21 24 27 29 30
+ 33 34 35 36 45 53 54 58 59 60 63
c225 58 0 2.05666e-19 $X=8.445 $Y=1.74
c226 54 0 1.98367e-19 $X=5.04 $Y=1.74
c227 53 0 8.87067e-20 $X=5.04 $Y=1.74
c228 30 0 9.24143e-20 $X=4.655 $Y=0.87
c229 18 0 3.84972e-20 $X=8.505 $Y=2.275
r230 58 61 48.4159 $w=2.7e-07 $l=1.65e-07 $layer=POLY_cond $X=8.445 $Y=1.74
+ $X2=8.445 $Y2=1.905
r231 58 60 48.4159 $w=2.7e-07 $l=1.65e-07 $layer=POLY_cond $X=8.445 $Y=1.74
+ $X2=8.445 $Y2=1.575
r232 58 59 145.28 $w=1.7e-07 $l=1.7e-07 $layer=licon1_POLY $count=1 $X=8.445
+ $Y=1.74 $X2=8.445 $Y2=1.74
r233 53 56 40.9657 $w=3.3e-07 $l=1.35e-07 $layer=POLY_cond $X=5.04 $Y=1.74
+ $X2=5.04 $Y2=1.875
r234 53 54 145.28 $w=1.7e-07 $l=1.7e-07 $layer=licon1_POLY $count=1 $X=5.04
+ $Y=1.74 $X2=5.04 $Y2=1.74
r235 45 59 9.3 $w=1.7e-07 $l=1.7e-07 $layer=mcon $count=1 $X=8.51 $Y=1.87
+ $X2=8.51 $Y2=1.87
r236 43 54 6.36876 $w=3.78e-07 $l=2.1e-07 $layer=LI1_cond $X=4.83 $Y=1.765
+ $X2=5.04 $Y2=1.765
r237 43 71 3.88191 $w=3.78e-07 $l=1.28e-07 $layer=LI1_cond $X=4.83 $Y=1.765
+ $X2=4.702 $Y2=1.765
r238 42 43 9.3 $w=1.7e-07 $l=1.7e-07 $layer=mcon $count=1 $X=4.83 $Y=1.87
+ $X2=4.83 $Y2=1.87
r239 39 63 71.2419 $w=2.18e-07 $l=1.36e-06 $layer=LI1_cond $X=1.125 $Y=1.87
+ $X2=1.125 $Y2=0.51
r240 38 39 9.3 $w=1.7e-07 $l=1.7e-07 $layer=mcon $count=1 $X=1.15 $Y=1.87
+ $X2=1.15 $Y2=1.87
r241 36 42 0.115467 $w=2.3e-07 $l=1.45e-07 $layer=MET1_cond $X=4.975 $Y=1.87
+ $X2=4.83 $Y2=1.87
r242 35 45 0.115467 $w=2.3e-07 $l=1.45e-07 $layer=MET1_cond $X=8.365 $Y=1.87
+ $X2=8.51 $Y2=1.87
r243 35 36 4.19554 $w=1.4e-07 $l=3.39e-06 $layer=MET1_cond $X=8.365 $Y=1.87
+ $X2=4.975 $Y2=1.87
r244 34 38 0.115467 $w=2.3e-07 $l=1.45e-07 $layer=MET1_cond $X=1.295 $Y=1.87
+ $X2=1.15 $Y2=1.87
r245 33 42 0.115467 $w=2.3e-07 $l=1.45e-07 $layer=MET1_cond $X=4.685 $Y=1.87
+ $X2=4.83 $Y2=1.87
r246 33 34 4.19554 $w=1.4e-07 $l=3.39e-06 $layer=MET1_cond $X=4.685 $Y=1.87
+ $X2=1.295 $Y2=1.87
r247 30 48 25.3549 $w=3.3e-07 $l=1.45e-07 $layer=POLY_cond $X=4.655 $Y=0.87
+ $X2=4.51 $Y2=0.87
r248 29 32 9.15829 $w=2.18e-07 $l=1.65e-07 $layer=LI1_cond $X=4.68 $Y=0.87
+ $X2=4.68 $Y2=1.035
r249 29 30 145.28 $w=1.7e-07 $l=1.7e-07 $layer=licon1_POLY $count=1 $X=4.655
+ $Y=0.87 $X2=4.655 $Y2=0.87
r250 27 71 5.30917 $w=1.75e-07 $l=1.9e-07 $layer=LI1_cond $X=4.702 $Y=1.575
+ $X2=4.702 $Y2=1.765
r251 27 32 34.2234 $w=1.73e-07 $l=5.4e-07 $layer=LI1_cond $X=4.702 $Y=1.575
+ $X2=4.702 $Y2=1.035
r252 22 24 425.596 $w=1.5e-07 $l=8.3e-07 $layer=POLY_cond $X=9.035 $Y=1.245
+ $X2=9.035 $Y2=0.415
r253 20 22 26.9307 $w=1.5e-07 $l=1.06066e-07 $layer=POLY_cond $X=8.96 $Y=1.32
+ $X2=9.035 $Y2=1.245
r254 20 21 194.851 $w=1.5e-07 $l=3.8e-07 $layer=POLY_cond $X=8.96 $Y=1.32
+ $X2=8.58 $Y2=1.32
r255 18 61 189.723 $w=1.5e-07 $l=3.7e-07 $layer=POLY_cond $X=8.505 $Y=2.275
+ $X2=8.505 $Y2=1.905
r256 14 21 26.9307 $w=1.5e-07 $l=1.06066e-07 $layer=POLY_cond $X=8.505 $Y=1.395
+ $X2=8.58 $Y2=1.32
r257 14 60 92.2979 $w=1.5e-07 $l=1.8e-07 $layer=POLY_cond $X=8.505 $Y=1.395
+ $X2=8.505 $Y2=1.575
r258 12 56 205.106 $w=1.5e-07 $l=4e-07 $layer=POLY_cond $X=5.01 $Y=2.275
+ $X2=5.01 $Y2=1.875
r259 7 48 21.2229 $w=1.5e-07 $l=1.65e-07 $layer=POLY_cond $X=4.51 $Y=0.705
+ $X2=4.51 $Y2=0.87
r260 7 9 93.1867 $w=1.5e-07 $l=2.9e-07 $layer=POLY_cond $X=4.51 $Y=0.705
+ $X2=4.51 $Y2=0.415
r261 2 39 300 $w=1.7e-07 $l=2.01494e-07 $layer=licon1_PDIFF $count=2 $X=0.965
+ $Y=1.815 $X2=1.1 $Y2=1.96
r262 1 63 182 $w=1.7e-07 $l=3.35783e-07 $layer=licon1_NDIFF $count=1 $X=0.965
+ $Y=0.235 $X2=1.1 $Y2=0.51
.ends

.subckt PM_SKY130_FD_SC_HD__SDFBBN_1%A_1102_21# 1 2 9 13 17 19 21 22 26 28 30 31
+ 32 35 36 41 45 49
c147 36 0 1.46668e-19 $X=5.72 $Y=1.74
r148 49 56 6.11232 $w=2.76e-07 $l=3.5e-08 $layer=POLY_cond $X=7.96 $Y=1.15
+ $X2=7.995 $Y2=1.15
r149 48 49 145.28 $w=1.7e-07 $l=1.7e-07 $layer=licon1_POLY $count=1 $X=7.96
+ $Y=1.15 $X2=7.96 $Y2=1.15
r150 45 48 5.93683 $w=3.28e-07 $l=1.7e-07 $layer=LI1_cond $X=7.96 $Y=0.98
+ $X2=7.96 $Y2=1.15
r151 43 44 14.0202 $w=2.48e-07 $l=2.85e-07 $layer=LI1_cond $X=6.845 $Y=0.695
+ $X2=6.845 $Y2=0.98
r152 36 53 46.3655 $w=3.45e-07 $l=1.65e-07 $layer=POLY_cond $X=5.682 $Y=1.74
+ $X2=5.682 $Y2=1.905
r153 36 52 46.3655 $w=3.45e-07 $l=1.65e-07 $layer=POLY_cond $X=5.682 $Y=1.74
+ $X2=5.682 $Y2=1.575
r154 35 38 7.83661 $w=2.48e-07 $l=1.7e-07 $layer=LI1_cond $X=5.76 $Y=1.74
+ $X2=5.76 $Y2=1.91
r155 35 36 145.28 $w=1.7e-07 $l=1.7e-07 $layer=licon1_POLY $count=1 $X=5.72
+ $Y=1.74 $X2=5.72 $Y2=1.74
r156 33 44 2.94836 $w=1.7e-07 $l=1.65e-07 $layer=LI1_cond $X=7.01 $Y=0.98
+ $X2=6.845 $Y2=0.98
r157 32 45 4.62375 $w=1.7e-07 $l=1.65e-07 $layer=LI1_cond $X=7.795 $Y=0.98
+ $X2=7.96 $Y2=0.98
r158 32 33 51.2139 $w=1.68e-07 $l=7.85e-07 $layer=LI1_cond $X=7.795 $Y=0.98
+ $X2=7.01 $Y2=0.98
r159 30 44 5.3975 $w=2.48e-07 $l=1.09087e-07 $layer=LI1_cond $X=6.9 $Y=1.065
+ $X2=6.845 $Y2=0.98
r160 30 31 46.9733 $w=1.68e-07 $l=7.2e-07 $layer=LI1_cond $X=6.9 $Y=1.065
+ $X2=6.9 $Y2=1.785
r161 29 41 3.70735 $w=2.5e-07 $l=8.5e-08 $layer=LI1_cond $X=6.555 $Y=1.91
+ $X2=6.47 $Y2=1.91
r162 28 31 7.14316 $w=2.5e-07 $l=1.62019e-07 $layer=LI1_cond $X=6.815 $Y=1.91
+ $X2=6.9 $Y2=1.785
r163 28 29 11.9854 $w=2.48e-07 $l=2.6e-07 $layer=LI1_cond $X=6.815 $Y=1.91
+ $X2=6.555 $Y2=1.91
r164 24 41 2.76166 $w=1.7e-07 $l=1.25e-07 $layer=LI1_cond $X=6.47 $Y=2.035
+ $X2=6.47 $Y2=1.91
r165 24 26 11.4171 $w=1.68e-07 $l=1.75e-07 $layer=LI1_cond $X=6.47 $Y=2.035
+ $X2=6.47 $Y2=2.21
r166 23 38 0.716491 $w=2.5e-07 $l=1.25e-07 $layer=LI1_cond $X=5.885 $Y=1.91
+ $X2=5.76 $Y2=1.91
r167 22 41 3.70735 $w=2.5e-07 $l=8.5e-08 $layer=LI1_cond $X=6.385 $Y=1.91
+ $X2=6.47 $Y2=1.91
r168 22 23 23.0489 $w=2.48e-07 $l=5e-07 $layer=LI1_cond $X=6.385 $Y=1.91
+ $X2=5.885 $Y2=1.91
r169 19 56 17.0164 $w=1.5e-07 $l=1.65e-07 $layer=POLY_cond $X=7.995 $Y=0.985
+ $X2=7.995 $Y2=1.15
r170 19 21 138.173 $w=1.5e-07 $l=4.3e-07 $layer=POLY_cond $X=7.995 $Y=0.985
+ $X2=7.995 $Y2=0.555
r171 15 49 30.5616 $w=2.76e-07 $l=2.43926e-07 $layer=POLY_cond $X=7.785 $Y=1.315
+ $X2=7.96 $Y2=1.15
r172 15 17 384.574 $w=1.5e-07 $l=7.5e-07 $layer=POLY_cond $X=7.785 $Y=1.315
+ $X2=7.785 $Y2=2.065
r173 13 53 189.723 $w=1.5e-07 $l=3.7e-07 $layer=POLY_cond $X=5.61 $Y=2.275
+ $X2=5.61 $Y2=1.905
r174 9 52 579.426 $w=1.5e-07 $l=1.13e-06 $layer=POLY_cond $X=5.585 $Y=0.445
+ $X2=5.585 $Y2=1.575
r175 2 41 600 $w=1.7e-07 $l=3.38748e-07 $layer=licon1_PDIFF $count=1 $X=6.215
+ $Y=2.065 $X2=6.47 $Y2=1.87
r176 2 26 600 $w=1.7e-07 $l=3.19374e-07 $layer=licon1_PDIFF $count=1 $X=6.215
+ $Y=2.065 $X2=6.47 $Y2=2.21
r177 1 43 182 $w=1.7e-07 $l=5.23163e-07 $layer=licon1_NDIFF $count=1 $X=6.71
+ $Y=0.235 $X2=6.845 $Y2=0.695
.ends

.subckt PM_SKY130_FD_SC_HD__SDFBBN_1%SET_B 3 5 7 11 15 17 19 20 26 27 33
c130 33 0 1.34289e-19 $X=9.93 $Y=0.98
c131 15 0 1.0852e-19 $X=10.055 $Y=2.275
r132 33 36 46.255 $w=3.35e-07 $l=1.65e-07 $layer=POLY_cond $X=9.962 $Y=0.98
+ $X2=9.962 $Y2=1.145
r133 33 35 46.255 $w=3.35e-07 $l=1.65e-07 $layer=POLY_cond $X=9.962 $Y=0.98
+ $X2=9.962 $Y2=0.815
r134 30 31 145.28 $w=1.7e-07 $l=1.7e-07 $layer=licon1_POLY $count=1 $X=6.035
+ $Y=0.98 $X2=6.035 $Y2=0.98
r135 27 33 145.28 $w=1.7e-07 $l=1.7e-07 $layer=licon1_POLY $count=1 $X=9.93
+ $Y=0.98 $X2=9.93 $Y2=0.98
r136 26 27 9.3 $w=1.7e-07 $l=1.7e-07 $layer=mcon $count=1 $X=9.89 $Y=0.85
+ $X2=9.89 $Y2=0.85
r137 20 22 0.115467 $w=2.3e-07 $l=1.45e-07 $layer=MET1_cond $X=6.355 $Y=0.85
+ $X2=6.21 $Y2=0.85
r138 19 26 0.115467 $w=2.3e-07 $l=1.45e-07 $layer=MET1_cond $X=9.745 $Y=0.85
+ $X2=9.89 $Y2=0.85
r139 19 20 4.19554 $w=1.4e-07 $l=3.39e-06 $layer=MET1_cond $X=9.745 $Y=0.85
+ $X2=6.355 $Y2=0.85
r140 17 31 6.86495 $w=3.11e-07 $l=1.75e-07 $layer=LI1_cond $X=6.21 $Y=0.9
+ $X2=6.035 $Y2=0.9
r141 17 22 9.3 $w=1.7e-07 $l=1.7e-07 $layer=mcon $count=1 $X=6.21 $Y=0.85
+ $X2=6.21 $Y2=0.85
r142 15 36 579.426 $w=1.5e-07 $l=1.13e-06 $layer=POLY_cond $X=10.055 $Y=2.275
+ $X2=10.055 $Y2=1.145
r143 11 35 189.723 $w=1.5e-07 $l=3.7e-07 $layer=POLY_cond $X=9.945 $Y=0.445
+ $X2=9.945 $Y2=0.815
r144 5 30 38.6529 $w=3.37e-07 $l=2.08315e-07 $layer=POLY_cond $X=6.14 $Y=1.145
+ $X2=6.042 $Y2=0.98
r145 5 7 579.426 $w=1.5e-07 $l=1.13e-06 $layer=POLY_cond $X=6.14 $Y=1.145
+ $X2=6.14 $Y2=2.275
r146 1 30 38.6529 $w=3.37e-07 $l=2.04316e-07 $layer=POLY_cond $X=6.13 $Y=0.815
+ $X2=6.042 $Y2=0.98
r147 1 3 189.723 $w=1.5e-07 $l=3.7e-07 $layer=POLY_cond $X=6.13 $Y=0.815
+ $X2=6.13 $Y2=0.445
.ends

.subckt PM_SKY130_FD_SC_HD__SDFBBN_1%A_917_47# 1 2 9 11 13 15 19 24 25 26 27 32
c113 32 0 1.42598e-19 $X=5.67 $Y=1.3
c114 27 0 1.57233e-19 $X=6.395 $Y=1.32
r115 35 36 145.28 $w=1.7e-07 $l=1.7e-07 $layer=licon1_POLY $count=1 $X=6.56
+ $Y=1.32 $X2=6.56 $Y2=1.32
r116 31 32 4.92405 $w=2.08e-07 $l=8.5e-08 $layer=LI1_cond $X=5.585 $Y=1.3
+ $X2=5.67 $Y2=1.3
r117 29 31 10.8268 $w=2.08e-07 $l=2.05e-07 $layer=LI1_cond $X=5.38 $Y=1.3
+ $X2=5.585 $Y2=1.3
r118 27 35 8.9562 $w=3.2e-07 $l=1.65e-07 $layer=LI1_cond $X=6.395 $Y=1.32
+ $X2=6.56 $Y2=1.32
r119 27 32 47.2995 $w=1.68e-07 $l=7.25e-07 $layer=LI1_cond $X=6.395 $Y=1.32
+ $X2=5.67 $Y2=1.32
r120 26 31 1.9771 $w=1.7e-07 $l=1.05e-07 $layer=LI1_cond $X=5.585 $Y=1.195
+ $X2=5.585 $Y2=1.3
r121 25 26 35.2299 $w=1.68e-07 $l=5.4e-07 $layer=LI1_cond $X=5.585 $Y=0.655
+ $X2=5.585 $Y2=1.195
r122 23 29 1.9771 $w=1.7e-07 $l=1.05e-07 $layer=LI1_cond $X=5.38 $Y=1.405
+ $X2=5.38 $Y2=1.3
r123 23 24 55.1283 $w=1.68e-07 $l=8.45e-07 $layer=LI1_cond $X=5.38 $Y=1.405
+ $X2=5.38 $Y2=2.25
r124 19 24 6.81649 $w=1.7e-07 $l=1.20208e-07 $layer=LI1_cond $X=5.295 $Y=2.335
+ $X2=5.38 $Y2=2.25
r125 19 21 32.2941 $w=1.68e-07 $l=4.95e-07 $layer=LI1_cond $X=5.295 $Y=2.335
+ $X2=4.8 $Y2=2.335
r126 15 25 20.5698 $w=1.72e-07 $l=2.93973e-07 $layer=LI1_cond $X=5.577 $Y=0.365
+ $X2=5.585 $Y2=0.655
r127 15 17 42.4227 $w=1.98e-07 $l=7.65e-07 $layer=LI1_cond $X=5.485 $Y=0.365
+ $X2=4.72 $Y2=0.365
r128 11 36 38.5481 $w=3.01e-07 $l=2.05122e-07 $layer=POLY_cond $X=6.68 $Y=1.485
+ $X2=6.59 $Y2=1.32
r129 11 13 297.404 $w=1.5e-07 $l=5.8e-07 $layer=POLY_cond $X=6.68 $Y=1.485
+ $X2=6.68 $Y2=2.065
r130 7 36 38.5481 $w=3.01e-07 $l=1.86145e-07 $layer=POLY_cond $X=6.635 $Y=1.155
+ $X2=6.59 $Y2=1.32
r131 7 9 307.66 $w=1.5e-07 $l=6e-07 $layer=POLY_cond $X=6.635 $Y=1.155 $X2=6.635
+ $Y2=0.555
r132 2 21 600 $w=1.7e-07 $l=3.30681e-07 $layer=licon1_PDIFF $count=1 $X=4.665
+ $Y=2.065 $X2=4.8 $Y2=2.335
r133 1 17 182 $w=1.7e-07 $l=2.01494e-07 $layer=licon1_NDIFF $count=1 $X=4.585
+ $Y=0.235 $X2=4.72 $Y2=0.38
.ends

.subckt PM_SKY130_FD_SC_HD__SDFBBN_1%A_1396_21# 1 2 9 13 17 21 23 24 25 27 31 34
+ 42 43 46 49 53 56 59
c161 56 0 6.74557e-20 $X=10.95 $Y=1.32
c162 53 0 1.57233e-19 $X=7.1 $Y=1.32
c163 42 0 2.58372e-20 $X=11.125 $Y=1.53
c164 27 0 1.52865e-19 $X=11.68 $Y=1.66
c165 9 0 1.18612e-19 $X=7.055 $Y=0.555
r166 58 59 145.28 $w=1.7e-07 $l=1.7e-07 $layer=licon1_POLY $count=1 $X=11.165
+ $Y=1.32 $X2=11.165 $Y2=1.32
r167 56 58 33.5372 $w=3.09e-07 $l=2.15e-07 $layer=POLY_cond $X=10.95 $Y=1.32
+ $X2=11.165 $Y2=1.32
r168 55 56 8.57929 $w=3.09e-07 $l=5.5e-08 $layer=POLY_cond $X=10.895 $Y=1.32
+ $X2=10.95 $Y2=1.32
r169 52 53 6.97428 $w=3.11e-07 $l=4.5e-08 $layer=POLY_cond $X=7.055 $Y=1.32
+ $X2=7.1 $Y2=1.32
r170 50 59 8.80047 $w=2.73e-07 $l=2.1e-07 $layer=LI1_cond $X=11.217 $Y=1.53
+ $X2=11.217 $Y2=1.32
r171 49 50 9.3 $w=1.7e-07 $l=1.7e-07 $layer=mcon $count=1 $X=11.27 $Y=1.53
+ $X2=11.27 $Y2=1.53
r172 45 46 9.3 $w=1.7e-07 $l=1.7e-07 $layer=mcon $count=1 $X=8.05 $Y=1.53
+ $X2=8.05 $Y2=1.53
r173 43 45 0.115467 $w=2.3e-07 $l=1.45e-07 $layer=MET1_cond $X=8.195 $Y=1.53
+ $X2=8.05 $Y2=1.53
r174 42 49 0.115467 $w=2.3e-07 $l=1.45e-07 $layer=MET1_cond $X=11.125 $Y=1.53
+ $X2=11.27 $Y2=1.53
r175 42 43 3.62623 $w=1.4e-07 $l=2.93e-06 $layer=MET1_cond $X=11.125 $Y=1.53
+ $X2=8.195 $Y2=1.53
r176 41 50 1.88582 $w=2.73e-07 $l=4.5e-08 $layer=LI1_cond $X=11.217 $Y=1.575
+ $X2=11.217 $Y2=1.53
r177 40 59 16.5533 $w=2.73e-07 $l=3.95e-07 $layer=LI1_cond $X=11.217 $Y=0.925
+ $X2=11.217 $Y2=1.32
r178 38 46 27.1304 $w=2.38e-07 $l=5.65e-07 $layer=LI1_cond $X=7.485 $Y=1.535
+ $X2=8.05 $Y2=1.535
r179 37 38 2.60351 $w=2.4e-07 $l=1.65e-07 $layer=LI1_cond $X=7.32 $Y=1.535
+ $X2=7.485 $Y2=1.535
r180 35 53 34.0965 $w=3.11e-07 $l=2.2e-07 $layer=POLY_cond $X=7.32 $Y=1.32
+ $X2=7.1 $Y2=1.32
r181 34 37 7.50834 $w=3.28e-07 $l=2.15e-07 $layer=LI1_cond $X=7.32 $Y=1.32
+ $X2=7.32 $Y2=1.535
r182 34 35 145.28 $w=1.7e-07 $l=1.7e-07 $layer=licon1_POLY $count=1 $X=7.32
+ $Y=1.32 $X2=7.32 $Y2=1.32
r183 29 31 17.1645 $w=2.08e-07 $l=3.25e-07 $layer=LI1_cond $X=11.67 $Y=0.755
+ $X2=11.67 $Y2=0.43
r184 25 41 7.32204 $w=1.7e-07 $l=1.75425e-07 $layer=LI1_cond $X=11.355 $Y=1.66
+ $X2=11.217 $Y2=1.575
r185 25 27 21.2032 $w=1.68e-07 $l=3.25e-07 $layer=LI1_cond $X=11.355 $Y=1.66
+ $X2=11.68 $Y2=1.66
r186 24 40 7.32204 $w=1.7e-07 $l=1.75425e-07 $layer=LI1_cond $X=11.355 $Y=0.84
+ $X2=11.217 $Y2=0.925
r187 23 29 6.91519 $w=1.7e-07 $l=1.41244e-07 $layer=LI1_cond $X=11.565 $Y=0.84
+ $X2=11.67 $Y2=0.755
r188 23 24 13.7005 $w=1.68e-07 $l=2.1e-07 $layer=LI1_cond $X=11.565 $Y=0.84
+ $X2=11.355 $Y2=0.84
r189 19 56 19.6649 $w=1.5e-07 $l=1.65e-07 $layer=POLY_cond $X=10.95 $Y=1.155
+ $X2=10.95 $Y2=1.32
r190 19 21 307.66 $w=1.5e-07 $l=6e-07 $layer=POLY_cond $X=10.95 $Y=1.155
+ $X2=10.95 $Y2=0.555
r191 15 55 19.6649 $w=1.5e-07 $l=1.65e-07 $layer=POLY_cond $X=10.895 $Y=1.485
+ $X2=10.895 $Y2=1.32
r192 15 17 297.404 $w=1.5e-07 $l=5.8e-07 $layer=POLY_cond $X=10.895 $Y=1.485
+ $X2=10.895 $Y2=2.065
r193 11 53 19.8172 $w=1.5e-07 $l=1.65e-07 $layer=POLY_cond $X=7.1 $Y=1.485
+ $X2=7.1 $Y2=1.32
r194 11 13 297.404 $w=1.5e-07 $l=5.8e-07 $layer=POLY_cond $X=7.1 $Y=1.485
+ $X2=7.1 $Y2=2.065
r195 7 52 19.8172 $w=1.5e-07 $l=1.65e-07 $layer=POLY_cond $X=7.055 $Y=1.155
+ $X2=7.055 $Y2=1.32
r196 7 9 307.66 $w=1.5e-07 $l=6e-07 $layer=POLY_cond $X=7.055 $Y=1.155 $X2=7.055
+ $Y2=0.555
r197 2 27 600 $w=1.7e-07 $l=2.08327e-07 $layer=licon1_PDIFF $count=1 $X=11.555
+ $Y=1.505 $X2=11.68 $Y2=1.66
r198 1 31 182 $w=1.7e-07 $l=2.498e-07 $layer=licon1_NDIFF $count=1 $X=11.555
+ $Y=0.235 $X2=11.68 $Y2=0.43
.ends

.subckt PM_SKY130_FD_SC_HD__SDFBBN_1%A_1887_21# 1 2 9 13 15 17 20 22 25 27 28 30
+ 31 33 36 38 41 45 46 48 49 52 54 57 58 61 62 66 68 72 73
c181 46 0 1.29033e-19 $X=9.635 $Y=1.74
c182 20 0 1.52865e-19 $X=12.375 $Y=1.985
c183 9 0 8.93206e-20 $X=9.51 $Y=0.445
r184 72 73 145.28 $w=1.7e-07 $l=1.7e-07 $layer=licon1_POLY $count=1 $X=12.34
+ $Y=1.16 $X2=12.34 $Y2=1.16
r185 69 72 3.31764 $w=3.28e-07 $l=9.5e-08 $layer=LI1_cond $X=12.245 $Y=1.16
+ $X2=12.34 $Y2=1.16
r186 64 66 4.61622 $w=1.83e-07 $l=7.7e-08 $layer=LI1_cond $X=10.74 $Y=0.687
+ $X2=10.817 $Y2=0.687
r187 60 69 4.62375 $w=1.7e-07 $l=1.65e-07 $layer=LI1_cond $X=12.245 $Y=1.325
+ $X2=12.245 $Y2=1.16
r188 60 61 38.492 $w=1.68e-07 $l=5.9e-07 $layer=LI1_cond $X=12.245 $Y=1.325
+ $X2=12.245 $Y2=1.915
r189 59 68 5.29182 $w=1.7e-07 $l=8.8e-08 $layer=LI1_cond $X=10.905 $Y=2
+ $X2=10.817 $Y2=2
r190 58 61 6.81649 $w=1.7e-07 $l=1.20208e-07 $layer=LI1_cond $X=12.16 $Y=2
+ $X2=12.245 $Y2=1.915
r191 58 59 81.877 $w=1.68e-07 $l=1.255e-06 $layer=LI1_cond $X=12.16 $Y=2
+ $X2=10.905 $Y2=2
r192 57 68 1.23839 $w=1.75e-07 $l=8.5e-08 $layer=LI1_cond $X=10.817 $Y=1.915
+ $X2=10.817 $Y2=2
r193 56 66 1.08604 $w=1.75e-07 $l=9.3e-08 $layer=LI1_cond $X=10.817 $Y=0.78
+ $X2=10.817 $Y2=0.687
r194 56 57 71.9325 $w=1.73e-07 $l=1.135e-06 $layer=LI1_cond $X=10.817 $Y=0.78
+ $X2=10.817 $Y2=1.915
r195 55 62 5.16603 $w=1.7e-07 $l=8.5e-08 $layer=LI1_cond $X=10.41 $Y=2
+ $X2=10.325 $Y2=2
r196 54 68 5.29182 $w=1.7e-07 $l=8.7e-08 $layer=LI1_cond $X=10.73 $Y=2
+ $X2=10.817 $Y2=2
r197 54 55 20.877 $w=1.68e-07 $l=3.2e-07 $layer=LI1_cond $X=10.73 $Y=2 $X2=10.41
+ $Y2=2
r198 50 62 1.34256 $w=1.7e-07 $l=8.5e-08 $layer=LI1_cond $X=10.325 $Y=2.085