* File: sky130_fd_sc_hd__sdfbbn_2.pex.spice
* Created: Thu Aug 27 14:45:25 2020
* Program "Calibre xRC"
* Version "v2018.4_34.26"
* Nominal Temperature: 27C
* Circuit Temperature: 27C
* 
.subckt PM_SKY130_FD_SC_HD__SDFBBN_2%CLK_N 4 5 7 8 10 13 17 19 20 24 26
c45 13 0 2.71124e-20 $X=0.47 $Y=0.805
r46 24 27 48.4159 $w=2.7e-07 $l=1.65e-07 $layer=POLY_cond $X=0.24 $Y=1.235
+ $X2=0.24 $Y2=1.4
r47 24 26 48.4159 $w=2.7e-07 $l=1.65e-07 $layer=POLY_cond $X=0.24 $Y=1.235
+ $X2=0.24 $Y2=1.07
r48 19 20 11.1952 $w=3.48e-07 $l=3.4e-07 $layer=LI1_cond $X=0.26 $Y=1.19
+ $X2=0.26 $Y2=1.53
r49 19 24 145.28 $w=1.7e-07 $l=1.7e-07 $layer=licon1_POLY $count=1 $X=0.24
+ $Y=1.235 $X2=0.24 $Y2=1.235
r50 15 17 87.1702 $w=1.5e-07 $l=1.7e-07 $layer=POLY_cond $X=0.3 $Y=1.665
+ $X2=0.47 $Y2=1.665
r51 11 13 87.1702 $w=1.5e-07 $l=1.7e-07 $layer=POLY_cond $X=0.3 $Y=0.805
+ $X2=0.47 $Y2=0.805
r52 8 17 2.83073 $w=1.5e-07 $l=7.5e-08 $layer=POLY_cond $X=0.47 $Y=1.74 $X2=0.47
+ $Y2=1.665
r53 8 10 126.927 $w=1.5e-07 $l=3.95e-07 $layer=POLY_cond $X=0.47 $Y=1.74
+ $X2=0.47 $Y2=2.135
r54 5 13 2.83073 $w=1.5e-07 $l=7.5e-08 $layer=POLY_cond $X=0.47 $Y=0.73 $X2=0.47
+ $Y2=0.805
r55 5 7 91.58 $w=1.5e-07 $l=2.85e-07 $layer=POLY_cond $X=0.47 $Y=0.73 $X2=0.47
+ $Y2=0.445
r56 4 15 2.83073 $w=1.5e-07 $l=7.5e-08 $layer=POLY_cond $X=0.3 $Y=1.59 $X2=0.3
+ $Y2=1.665
r57 4 27 97.4255 $w=1.5e-07 $l=1.9e-07 $layer=POLY_cond $X=0.3 $Y=1.59 $X2=0.3
+ $Y2=1.4
r58 1 11 2.83073 $w=1.5e-07 $l=7.5e-08 $layer=POLY_cond $X=0.3 $Y=0.88 $X2=0.3
+ $Y2=0.805
r59 1 26 97.4255 $w=1.5e-07 $l=1.9e-07 $layer=POLY_cond $X=0.3 $Y=0.88 $X2=0.3
+ $Y2=1.07
.ends

.subckt PM_SKY130_FD_SC_HD__SDFBBN_2%A_27_47# 1 2 9 13 17 19 20 23 26 27 29 32
+ 36 40 41 42 46 47 49 51 52 55 58 59 61 62 63 66 70 74 81 84 85
c278 61 0 9.71454e-20 $X=5.327 $Y=1.12
c279 49 0 1.20913e-19 $X=8.937 $Y=1.305
c280 47 0 1.7288e-19 $X=8.62 $Y=0.87
c281 17 0 4.43992e-20 $X=4.59 $Y=2.275
r282 84 87 48.4159 $w=2.7e-07 $l=1.65e-07 $layer=POLY_cond $X=5.19 $Y=0.93
+ $X2=5.19 $Y2=1.095
r283 84 86 48.4159 $w=2.7e-07 $l=1.65e-07 $layer=POLY_cond $X=5.19 $Y=0.93
+ $X2=5.19 $Y2=0.765
r284 84 85 145.28 $w=1.7e-07 $l=1.7e-07 $layer=licon1_POLY $count=1 $X=5.19
+ $Y=0.93 $X2=5.19 $Y2=0.93
r285 78 81 31.1043 $w=2.7e-07 $l=1.4e-07 $layer=POLY_cond $X=0.75 $Y=1.235
+ $X2=0.89 $Y2=1.235
r286 78 79 145.28 $w=1.7e-07 $l=1.7e-07 $layer=licon1_POLY $count=1 $X=0.75
+ $Y=1.235 $X2=0.75 $Y2=1.235
r287 74 75 9.3 $w=1.7e-07 $l=1.7e-07 $layer=mcon $count=1 $X=8.51 $Y=1.19
+ $X2=8.51 $Y2=1.19
r288 70 72 0.0661242 $w=2.9e-07 $l=1.15e-07 $layer=MET1_cond $X=5.29 $Y=0.85
+ $X2=5.29 $Y2=0.965
r289 70 85 9.3 $w=1.7e-07 $l=1.7e-07 $layer=mcon $count=1 $X=5.29 $Y=0.85
+ $X2=5.29 $Y2=0.85
r290 66 79 19.2909 $w=2.28e-07 $l=3.85e-07 $layer=LI1_cond $X=0.72 $Y=0.85
+ $X2=0.72 $Y2=1.235
r291 65 66 9.3 $w=1.7e-07 $l=1.7e-07 $layer=mcon $count=1 $X=0.69 $Y=0.85
+ $X2=0.69 $Y2=0.85
r292 62 74 0.115467 $w=2.3e-07 $l=1.45e-07 $layer=MET1_cond $X=8.365 $Y=1.19
+ $X2=8.51 $Y2=1.19
r293 62 63 3.62623 $w=1.4e-07 $l=2.93e-06 $layer=MET1_cond $X=8.365 $Y=1.19
+ $X2=5.435 $Y2=1.19
r294 61 63 0.0739737 $w=1.4e-07 $l=1.38651e-07 $layer=MET1_cond $X=5.327 $Y=1.12
+ $X2=5.435 $Y2=1.19
r295 61 72 0.110669 $w=2.15e-07 $l=1.55e-07 $layer=MET1_cond $X=5.327 $Y=1.12
+ $X2=5.327 $Y2=0.965
r296 59 65 0.115467 $w=2.3e-07 $l=1.45e-07 $layer=MET1_cond $X=0.835 $Y=0.85
+ $X2=0.69 $Y2=0.85
r297 58 70 0.0513368 $w=1.4e-07 $l=1.45e-07 $layer=MET1_cond $X=5.145 $Y=0.85
+ $X2=5.29 $Y2=0.85
r298 58 59 5.33415 $w=1.4e-07 $l=4.31e-06 $layer=MET1_cond $X=5.145 $Y=0.85
+ $X2=0.835 $Y2=0.85
r299 57 79 28.0595 $w=2.28e-07 $l=5.6e-07 $layer=LI1_cond $X=0.72 $Y=1.795
+ $X2=0.72 $Y2=1.235
r300 56 66 2.25478 $w=2.28e-07 $l=4.5e-08 $layer=LI1_cond $X=0.72 $Y=0.805
+ $X2=0.72 $Y2=0.85
r301 52 94 40.9657 $w=3.3e-07 $l=1.35e-07 $layer=POLY_cond $X=8.955 $Y=1.74
+ $X2=8.955 $Y2=1.875
r302 51 52 145.28 $w=1.7e-07 $l=1.7e-07 $layer=licon1_POLY $count=1 $X=8.955
+ $Y=1.74 $X2=8.955 $Y2=1.74
r303 49 75 26.3101 $w=1.78e-07 $l=4.27e-07 $layer=LI1_cond $X=8.937 $Y=1.215
+ $X2=8.51 $Y2=1.215
r304 49 51 23.5344 $w=2.03e-07 $l=4.35e-07 $layer=LI1_cond $X=8.937 $Y=1.305
+ $X2=8.937 $Y2=1.74
r305 47 88 21.8577 $w=3.3e-07 $l=1.25e-07 $layer=POLY_cond $X=8.62 $Y=0.87
+ $X2=8.495 $Y2=0.87
r306 46 75 10.3113 $w=2.83e-07 $l=2.55e-07 $layer=LI1_cond $X=8.562 $Y=0.87
+ $X2=8.562 $Y2=1.125
r307 46 47 145.28 $w=1.7e-07 $l=1.7e-07 $layer=licon1_POLY $count=1 $X=8.62
+ $Y=0.87 $X2=8.62 $Y2=0.87
r308 43 55 3.4683 $w=1.7e-07 $l=8.8e-08 $layer=LI1_cond $X=0.345 $Y=1.88
+ $X2=0.257 $Y2=1.88
r309 42 57 7.01789 $w=1.7e-07 $l=1.51658e-07 $layer=LI1_cond $X=0.605 $Y=1.88
+ $X2=0.72 $Y2=1.795
r310 42 43 16.9626 $w=1.68e-07 $l=2.6e-07 $layer=LI1_cond $X=0.605 $Y=1.88
+ $X2=0.345 $Y2=1.88
r311 40 56 7.01789 $w=1.7e-07 $l=1.51658e-07 $layer=LI1_cond $X=0.605 $Y=0.72
+ $X2=0.72 $Y2=0.805
r312 40 41 16.9626 $w=1.68e-07 $l=2.6e-07 $layer=LI1_cond $X=0.605 $Y=0.72
+ $X2=0.345 $Y2=0.72
r313 34 41 6.81835 $w=1.7e-07 $l=1.23386e-07 $layer=LI1_cond $X=0.257 $Y=0.635
+ $X2=0.345 $Y2=0.72
r314 34 36 7.92208 $w=1.73e-07 $l=1.25e-07 $layer=LI1_cond $X=0.257 $Y=0.635
+ $X2=0.257 $Y2=0.51
r315 32 94 205.106 $w=1.5e-07 $l=4e-07 $layer=POLY_cond $X=8.925 $Y=2.275
+ $X2=8.925 $Y2=1.875
r316 27 88 21.2229 $w=1.5e-07 $l=1.65e-07 $layer=POLY_cond $X=8.495 $Y=0.705
+ $X2=8.495 $Y2=0.87
r317 27 29 93.1867 $w=1.5e-07 $l=2.9e-07 $layer=POLY_cond $X=8.495 $Y=0.705
+ $X2=8.495 $Y2=0.415
r318 26 87 76.9149 $w=1.5e-07 $l=1.5e-07 $layer=POLY_cond $X=5.13 $Y=1.245
+ $X2=5.13 $Y2=1.095
r319 23 86 179.468 $w=1.5e-07 $l=3.5e-07 $layer=POLY_cond $X=5.13 $Y=0.415
+ $X2=5.13 $Y2=0.765
r320 19 26 26.9307 $w=1.5e-07 $l=1.06066e-07 $layer=POLY_cond $X=5.055 $Y=1.32
+ $X2=5.13 $Y2=1.245
r321 19 20 199.979 $w=1.5e-07 $l=3.9e-07 $layer=POLY_cond $X=5.055 $Y=1.32
+ $X2=4.665 $Y2=1.32
r322 15 20 26.9307 $w=1.5e-07 $l=1.06066e-07 $layer=POLY_cond $X=4.59 $Y=1.395
+ $X2=4.665 $Y2=1.32
r323 15 17 451.234 $w=1.5e-07 $l=8.8e-07 $layer=POLY_cond $X=4.59 $Y=1.395
+ $X2=4.59 $Y2=2.275
r324 11 81 16.5046 $w=1.5e-07 $l=1.35e-07 $layer=POLY_cond $X=0.89 $Y=1.37
+ $X2=0.89 $Y2=1.235
r325 11 13 392.266 $w=1.5e-07 $l=7.65e-07 $layer=POLY_cond $X=0.89 $Y=1.37
+ $X2=0.89 $Y2=2.135
r326 7 81 16.5046 $w=1.5e-07 $l=1.35e-07 $layer=POLY_cond $X=0.89 $Y=1.1
+ $X2=0.89 $Y2=1.235
r327 7 9 335.862 $w=1.5e-07 $l=6.55e-07 $layer=POLY_cond $X=0.89 $Y=1.1 $X2=0.89
+ $Y2=0.445
r328 2 55 300 $w=1.7e-07 $l=1.97864e-07 $layer=licon1_PDIFF $count=2 $X=0.135
+ $Y=1.815 $X2=0.26 $Y2=1.96
r329 1 36 182 $w=1.7e-07 $l=3.31662e-07 $layer=licon1_NDIFF $count=1 $X=0.135
+ $Y=0.235 $X2=0.26 $Y2=0.51
.ends

.subckt PM_SKY130_FD_SC_HD__SDFBBN_2%SCD 3 7 9 10 17
c38 9 0 5.57791e-20 $X=1.61 $Y=1.19
c39 7 0 1.50346e-19 $X=1.83 $Y=2.135
c40 3 0 6.18549e-20 $X=1.83 $Y=0.445
r41 14 17 38.4695 $w=3.3e-07 $l=2.2e-07 $layer=POLY_cond $X=1.61 $Y=1.49
+ $X2=1.83 $Y2=1.49
r42 10 14 145.28 $w=1.7e-07 $l=1.7e-07 $layer=licon1_POLY $count=1 $X=1.61
+ $Y=1.49 $X2=1.61 $Y2=1.49
r43 9 10 12.3476 $w=2.78e-07 $l=3e-07 $layer=LI1_cond $X=1.555 $Y=1.19 $X2=1.555
+ $Y2=1.49
r44 5 17 21.2229 $w=1.5e-07 $l=1.65e-07 $layer=POLY_cond $X=1.83 $Y=1.655
+ $X2=1.83 $Y2=1.49
r45 5 7 246.128 $w=1.5e-07 $l=4.8e-07 $layer=POLY_cond $X=1.83 $Y=1.655 $X2=1.83
+ $Y2=2.135
r46 1 17 21.2229 $w=1.5e-07 $l=1.65e-07 $layer=POLY_cond $X=1.83 $Y=1.325
+ $X2=1.83 $Y2=1.49
r47 1 3 451.234 $w=1.5e-07 $l=8.8e-07 $layer=POLY_cond $X=1.83 $Y=1.325 $X2=1.83
+ $Y2=0.445
.ends

.subckt PM_SKY130_FD_SC_HD__SDFBBN_2%A_423_315# 1 2 7 9 10 11 14 17 21 23 25 26
+ 30 31 33 34 40 46
c103 25 0 2.25267e-19 $X=3.475 $Y=0.71
c104 11 0 5.57791e-20 $X=2.265 $Y=1.65
r105 37 39 8.46025 $w=3.18e-07 $l=1.65e-07 $layer=LI1_cond $X=2.905 $Y=1.74
+ $X2=2.905 $Y2=1.905
r106 37 38 145.28 $w=1.7e-07 $l=1.7e-07 $layer=licon1_POLY $count=1 $X=2.845
+ $Y=1.74 $X2=2.845 $Y2=1.74
r107 34 37 2.88111 $w=3.18e-07 $l=8e-08 $layer=LI1_cond $X=2.905 $Y=1.66
+ $X2=2.905 $Y2=1.74
r108 33 40 31.3155 $w=1.68e-07 $l=4.8e-07 $layer=LI1_cond $X=3.56 $Y=1.575
+ $X2=3.56 $Y2=1.095
r109 31 46 48.4159 $w=2.7e-07 $l=1.65e-07 $layer=POLY_cond $X=3.685 $Y=0.93
+ $X2=3.685 $Y2=0.765
r110 30 31 145.28 $w=1.7e-07 $l=1.7e-07 $layer=licon1_POLY $count=1 $X=3.685
+ $Y=0.93 $X2=3.685 $Y2=0.93
r111 28 40 7.79447 $w=2.93e-07 $l=1.47e-07 $layer=LI1_cond $X=3.622 $Y=0.948
+ $X2=3.622 $Y2=1.095
r112 28 30 0.703186 $w=2.93e-07 $l=1.8e-08 $layer=LI1_cond $X=3.622 $Y=0.948
+ $X2=3.622 $Y2=0.93
r113 27 30 5.27389 $w=2.93e-07 $l=1.35e-07 $layer=LI1_cond $X=3.622 $Y=0.795
+ $X2=3.622 $Y2=0.93
r114 25 27 19.9305 $w=8.7e-08 $l=1.84673e-07 $layer=LI1_cond $X=3.475 $Y=0.71
+ $X2=3.622 $Y2=0.795
r115 25 26 22.8342 $w=1.68e-07 $l=3.5e-07 $layer=LI1_cond $X=3.475 $Y=0.71
+ $X2=3.125 $Y2=0.71
r116 24 34 4.44149 $w=1.7e-07 $l=1.6e-07 $layer=LI1_cond $X=3.065 $Y=1.66
+ $X2=2.905 $Y2=1.66
r117 23 33 6.81649 $w=1.7e-07 $l=1.20208e-07 $layer=LI1_cond $X=3.475 $Y=1.66
+ $X2=3.56 $Y2=1.575
r118 23 24 26.7487 $w=1.68e-07 $l=4.1e-07 $layer=LI1_cond $X=3.475 $Y=1.66
+ $X2=3.065 $Y2=1.66
r119 19 26 6.81649 $w=1.7e-07 $l=1.20208e-07 $layer=LI1_cond $X=3.04 $Y=0.625
+ $X2=3.125 $Y2=0.71
r120 19 21 10.1123 $w=1.68e-07 $l=1.55e-07 $layer=LI1_cond $X=3.04 $Y=0.625
+ $X2=3.04 $Y2=0.47
r121 17 39 25.7701 $w=1.68e-07 $l=3.95e-07 $layer=LI1_cond $X=2.98 $Y=2.3
+ $X2=2.98 $Y2=1.905
r122 14 46 102.827 $w=1.5e-07 $l=3.2e-07 $layer=POLY_cond $X=3.745 $Y=0.445
+ $X2=3.745 $Y2=0.765
r123 10 38 18.9432 $w=2.85e-07 $l=9e-08 $layer=POLY_cond $X=2.837 $Y=1.65
+ $X2=2.837 $Y2=1.74
r124 10 11 220.489 $w=1.5e-07 $l=4.3e-07 $layer=POLY_cond $X=2.695 $Y=1.65
+ $X2=2.265 $Y2=1.65
r125 7 11 26.9307 $w=1.5e-07 $l=1.06066e-07 $layer=POLY_cond $X=2.19 $Y=1.725
+ $X2=2.265 $Y2=1.65
r126 7 9 131.747 $w=1.5e-07 $l=4.1e-07 $layer=POLY_cond $X=2.19 $Y=1.725
+ $X2=2.19 $Y2=2.135
r127 2 17 600 $w=1.7e-07 $l=2.90861e-07 $layer=licon1_PDIFF $count=1 $X=2.855
+ $Y=2.065 $X2=2.98 $Y2=2.3
r128 1 21 182 $w=1.7e-07 $l=2.90861e-07 $layer=licon1_NDIFF $count=1 $X=2.915
+ $Y=0.235 $X2=3.04 $Y2=0.47
.ends

.subckt PM_SKY130_FD_SC_HD__SDFBBN_2%SCE 1 3 4 6 8 10 11 13 14 16 18 19 20 27 30
+ 31 32 39
c98 27 0 7.41594e-20 $X=2.25 $Y=0.93
c99 19 0 4.83365e-20 $X=3.257 $Y=0.81
r100 31 32 17.8105 $w=2.18e-07 $l=3.4e-07 $layer=LI1_cond $X=2.045 $Y=1.19
+ $X2=2.045 $Y2=1.53
r101 28 39 46.5827 $w=3.6e-07 $l=1.65e-07 $layer=POLY_cond $X=2.25 $Y=0.915
+ $X2=2.415 $Y2=0.915
r102 28 36 9.61737 $w=3.6e-07 $l=6e-08 $layer=POLY_cond $X=2.25 $Y=0.915
+ $X2=2.19 $Y2=0.915
r103 27 28 145.28 $w=1.7e-07 $l=1.7e-07 $layer=licon1_POLY $count=1 $X=2.25
+ $Y=0.93 $X2=2.25 $Y2=0.93
r104 25 31 4.97646 $w=2.18e-07 $l=9.5e-08 $layer=LI1_cond $X=2.045 $Y=1.095
+ $X2=2.045 $Y2=1.19
r105 24 27 7.15912 $w=3.28e-07 $l=2.05e-07 $layer=LI1_cond $X=2.045 $Y=0.93
+ $X2=2.25 $Y2=0.93
r106 24 25 3.11056 $w=2.2e-07 $l=1.65e-07 $layer=LI1_cond $X=2.045 $Y=0.93
+ $X2=2.045 $Y2=1.095
r107 22 30 13.4675 $w=2.08e-07 $l=2.55e-07 $layer=LI1_cond $X=2.04 $Y=0.765
+ $X2=2.04 $Y2=0.51
r108 21 24 0.174613 $w=3.28e-07 $l=5e-09 $layer=LI1_cond $X=2.04 $Y=0.93
+ $X2=2.045 $Y2=0.93
r109 21 22 3.38185 $w=2.1e-07 $l=1.65e-07 $layer=LI1_cond $X=2.04 $Y=0.93
+ $X2=2.04 $Y2=0.765
r110 16 18 93.1867 $w=1.5e-07 $l=2.9e-07 $layer=POLY_cond $X=3.685 $Y=1.985
+ $X2=3.685 $Y2=2.275
r111 15 20 5.30422 $w=1.5e-07 $l=7.5e-08 $layer=POLY_cond $X=3.34 $Y=1.91
+ $X2=3.265 $Y2=1.91
r112 14 16 26.9307 $w=1.5e-07 $l=1.06066e-07 $layer=POLY_cond $X=3.61 $Y=1.91
+ $X2=3.685 $Y2=1.985
r113 14 15 138.447 $w=1.5e-07 $l=2.7e-07 $layer=POLY_cond $X=3.61 $Y=1.91
+ $X2=3.34 $Y2=1.91
r114 11 20 20.4101 $w=1.5e-07 $l=7.5e-08 $layer=POLY_cond $X=3.265 $Y=1.985
+ $X2=3.265 $Y2=1.91
r115 11 13 93.1867 $w=1.5e-07 $l=2.9e-07 $layer=POLY_cond $X=3.265 $Y=1.985
+ $X2=3.265 $Y2=2.275
r116 10 20 20.4101 $w=1.5e-07 $l=7.5e-08 $layer=POLY_cond $X=3.265 $Y=1.835
+ $X2=3.265 $Y2=1.91
r117 9 19 20.4101 $w=1.5e-07 $l=7.88987e-08 $layer=POLY_cond $X=3.265 $Y=0.885
+ $X2=3.257 $Y2=0.81
r118 9 10 487.128 $w=1.5e-07 $l=9.5e-07 $layer=POLY_cond $X=3.265 $Y=0.885
+ $X2=3.265 $Y2=1.835
r119 6 19 20.4101 $w=1.5e-07 $l=7.84219e-08 $layer=POLY_cond $X=3.25 $Y=0.735
+ $X2=3.257 $Y2=0.81
r120 6 8 93.1867 $w=1.5e-07 $l=2.9e-07 $layer=POLY_cond $X=3.25 $Y=0.735
+ $X2=3.25 $Y2=0.445
r121 4 19 5.30422 $w=1.5e-07 $l=8.2e-08 $layer=POLY_cond $X=3.175 $Y=0.81
+ $X2=3.257 $Y2=0.81
r122 4 39 389.702 $w=1.5e-07 $l=7.6e-07 $layer=POLY_cond $X=3.175 $Y=0.81
+ $X2=2.415 $Y2=0.81
r123 1 36 23.3057 $w=1.5e-07 $l=1.8e-07 $layer=POLY_cond $X=2.19 $Y=0.735
+ $X2=2.19 $Y2=0.915
r124 1 3 93.1867 $w=1.5e-07 $l=2.9e-07 $layer=POLY_cond $X=2.19 $Y=0.735
+ $X2=2.19 $Y2=0.445
.ends

.subckt PM_SKY130_FD_SC_HD__SDFBBN_2%D 3 7 9 10 17
c42 3 0 1.09936e-19 $X=4.105 $Y=0.445
r43 14 17 36.6587 $w=2.7e-07 $l=1.65e-07 $layer=POLY_cond $X=3.94 $Y=1.49
+ $X2=4.105 $Y2=1.49
r44 9 10 39.9273 $w=1.98e-07 $l=7.2e-07 $layer=LI1_cond $X=3.925 $Y=1.49
+ $X2=3.925 $Y2=2.21
r45 9 14 145.28 $w=1.7e-07 $l=1.7e-07 $layer=licon1_POLY $count=1 $X=3.94
+ $Y=1.49 $X2=3.94 $Y2=1.49
r46 5 17 16.5046 $w=1.5e-07 $l=1.35e-07 $layer=POLY_cond $X=4.105 $Y=1.625
+ $X2=4.105 $Y2=1.49
r47 5 7 333.298 $w=1.5e-07 $l=6.5e-07 $layer=POLY_cond $X=4.105 $Y=1.625
+ $X2=4.105 $Y2=2.275
r48 1 17 16.5046 $w=1.5e-07 $l=1.35e-07 $layer=POLY_cond $X=4.105 $Y=1.355
+ $X2=4.105 $Y2=1.49
r49 1 3 466.617 $w=1.5e-07 $l=9.1e-07 $layer=POLY_cond $X=4.105 $Y=1.355
+ $X2=4.105 $Y2=0.445
.ends

.subckt PM_SKY130_FD_SC_HD__SDFBBN_2%A_193_47# 1 2 7 9 12 18 20 21 24 28 29 31
+ 32 33 34 43 51 52 56 57 58 61
c214 56 0 2.05666e-19 $X=8.445 $Y=1.74
c215 29 0 9.71454e-20 $X=4.71 $Y=0.87
c216 18 0 3.84972e-20 $X=8.505 $Y=2.275
r217 56 59 48.4159 $w=2.7e-07 $l=1.65e-07 $layer=POLY_cond $X=8.445 $Y=1.74
+ $X2=8.445 $Y2=1.905
r218 56 58 48.4159 $w=2.7e-07 $l=1.65e-07 $layer=POLY_cond $X=8.445 $Y=1.74
+ $X2=8.445 $Y2=1.575
r219 56 57 145.28 $w=1.7e-07 $l=1.7e-07 $layer=licon1_POLY $count=1 $X=8.445
+ $Y=1.74 $X2=8.445 $Y2=1.74
r220 51 54 40.9657 $w=3.3e-07 $l=1.35e-07 $layer=POLY_cond $X=5.04 $Y=1.74
+ $X2=5.04 $Y2=1.875
r221 51 52 145.28 $w=1.7e-07 $l=1.7e-07 $layer=licon1_POLY $count=1 $X=5.04
+ $Y=1.74 $X2=5.04 $Y2=1.74
r222 43 57 9.3 $w=1.7e-07 $l=1.7e-07 $layer=mcon $count=1 $X=8.51 $Y=1.87
+ $X2=8.51 $Y2=1.87
r223 41 52 6.36876 $w=3.78e-07 $l=2.1e-07 $layer=LI1_cond $X=4.83 $Y=1.765
+ $X2=5.04 $Y2=1.765
r224 41 69 2.88111 $w=3.78e-07 $l=9.5e-08 $layer=LI1_cond $X=4.83 $Y=1.765
+ $X2=4.735 $Y2=1.765
r225 40 41 9.3 $w=1.7e-07 $l=1.7e-07 $layer=mcon $count=1 $X=4.83 $Y=1.87
+ $X2=4.83 $Y2=1.87
r226 37 61 71.2419 $w=2.18e-07 $l=1.36e-06 $layer=LI1_cond $X=1.125 $Y=1.87
+ $X2=1.125 $Y2=0.51
r227 36 37 9.3 $w=1.7e-07 $l=1.7e-07 $layer=mcon $count=1 $X=1.15 $Y=1.87
+ $X2=1.15 $Y2=1.87
r228 34 40 0.115467 $w=2.3e-07 $l=1.45e-07 $layer=MET1_cond $X=4.975 $Y=1.87
+ $X2=4.83 $Y2=1.87
r229 33 43 0.115467 $w=2.3e-07 $l=1.45e-07 $layer=MET1_cond $X=8.365 $Y=1.87
+ $X2=8.51 $Y2=1.87
r230 33 34 4.19554 $w=1.4e-07 $l=3.39e-06 $layer=MET1_cond $X=8.365 $Y=1.87
+ $X2=4.975 $Y2=1.87
r231 32 36 0.115467 $w=2.3e-07 $l=1.45e-07 $layer=MET1_cond $X=1.295 $Y=1.87
+ $X2=1.15 $Y2=1.87
r232 31 40 0.115467 $w=2.3e-07 $l=1.45e-07 $layer=MET1_cond $X=4.685 $Y=1.87
+ $X2=4.83 $Y2=1.87
r233 31 32 4.19554 $w=1.4e-07 $l=3.39e-06 $layer=MET1_cond $X=4.685 $Y=1.87
+ $X2=1.295 $Y2=1.87
r234 29 46 22.732 $w=3.3e-07 $l=1.3e-07 $layer=POLY_cond $X=4.71 $Y=0.87
+ $X2=4.58 $Y2=0.87
r235 28 29 145.28 $w=1.7e-07 $l=1.7e-07 $layer=licon1_POLY $count=1 $X=4.71
+ $Y=0.87 $X2=4.71 $Y2=0.87
r236 26 69 3.93508 $w=2.2e-07 $l=1.9e-07 $layer=LI1_cond $X=4.735 $Y=1.575
+ $X2=4.735 $Y2=1.765
r237 26 28 36.9306 $w=2.18e-07 $l=7.05e-07 $layer=LI1_cond $X=4.735 $Y=1.575
+ $X2=4.735 $Y2=0.87
r238 22 24 425.596 $w=1.5e-07 $l=8.3e-07 $layer=POLY_cond $X=9.04 $Y=1.245
+ $X2=9.04 $Y2=0.415
r239 20 22 26.9307 $w=1.5e-07 $l=1.06066e-07 $layer=POLY_cond $X=8.965 $Y=1.32
+ $X2=9.04 $Y2=1.245
r240 20 21 197.415 $w=1.5e-07 $l=3.85e-07 $layer=POLY_cond $X=8.965 $Y=1.32
+ $X2=8.58 $Y2=1.32
r241 18 59 189.723 $w=1.5e-07 $l=3.7e-07 $layer=POLY_cond $X=8.505 $Y=2.275
+ $X2=8.505 $Y2=1.905
r242 14 21 26.9307 $w=1.5e-07 $l=1.06066e-07 $layer=POLY_cond $X=8.505 $Y=1.395
+ $X2=8.58 $Y2=1.32
r243 14 58 92.2979 $w=1.5e-07 $l=1.8e-07 $layer=POLY_cond $X=8.505 $Y=1.395
+ $X2=8.505 $Y2=1.575
r244 12 54 205.106 $w=1.5e-07 $l=4e-07 $layer=POLY_cond $X=5.01 $Y=2.275
+ $X2=5.01 $Y2=1.875
r245 7 46 21.2229 $w=1.5e-07 $l=1.65e-07 $layer=POLY_cond $X=4.58 $Y=0.705
+ $X2=4.58 $Y2=0.87
r246 7 9 93.1867 $w=1.5e-07 $l=2.9e-07 $layer=POLY_cond $X=4.58 $Y=0.705
+ $X2=4.58 $Y2=0.415
r247 2 37 300 $w=1.7e-07 $l=2.01494e-07 $layer=licon1_PDIFF $count=2 $X=0.965
+ $Y=1.815 $X2=1.1 $Y2=1.96
r248 1 61 182 $w=1.7e-07 $l=3.35783e-07 $layer=licon1_NDIFF $count=1 $X=0.965
+ $Y=0.235 $X2=1.1 $Y2=0.51
.ends

.subckt PM_SKY130_FD_SC_HD__SDFBBN_2%A_1107_21# 1 2 9 13 17 19 21 22 26 28 30 31
+ 32 35 36 41 45 49
c146 45 0 9.81116e-20 $X=7.96 $Y=0.98
r147 49 56 10.4783 $w=2.76e-07 $l=6e-08 $layer=POLY_cond $X=7.96 $Y=1.15
+ $X2=8.02 $Y2=1.15
r148 48 49 145.28 $w=1.7e-07 $l=1.7e-07 $layer=licon1_POLY $count=1 $X=7.96
+ $Y=1.15 $X2=7.96 $Y2=1.15
r149 45 48 5.93683 $w=3.28e-07 $l=1.7e-07 $layer=LI1_cond $X=7.96 $Y=0.98
+ $X2=7.96 $Y2=1.15
r150 43 44 14.1313 $w=2.59e-07 $l=3e-07 $layer=LI1_cond $X=6.87 $Y=0.68 $X2=6.87
+ $Y2=0.98
r151 36 53 46.1509 $w=3.2e-07 $l=1.65e-07 $layer=POLY_cond $X=5.695 $Y=1.74
+ $X2=5.695 $Y2=1.905
r152 36 52 46.1509 $w=3.2e-07 $l=1.65e-07 $layer=POLY_cond $X=5.695 $Y=1.74
+ $X2=5.695 $Y2=1.575
r153 35 38 7.83661 $w=2.48e-07 $l=1.7e-07 $layer=LI1_cond $X=5.76 $Y=1.74
+ $X2=5.76 $Y2=1.91
r154 35 36 145.28 $w=1.7e-07 $l=1.7e-07 $layer=licon1_POLY $count=1 $X=5.72
+ $Y=1.74 $X2=5.72 $Y2=1.74
r155 33 44 3.20129 $w=1.7e-07 $l=1.65e-07 $layer=LI1_cond $X=7.035 $Y=0.98
+ $X2=6.87 $Y2=0.98
r156 32 45 4.62375 $w=1.7e-07 $l=1.65e-07 $layer=LI1_cond $X=7.795 $Y=0.98
+ $X2=7.96 $Y2=0.98
r157 32 33 49.5829 $w=1.68e-07 $l=7.6e-07 $layer=LI1_cond $X=7.795 $Y=0.98
+ $X2=7.035 $Y2=0.98
r158 30 44 5.44435 $w=2.59e-07 $l=9.88686e-08 $layer=LI1_cond $X=6.9 $Y=1.065
+ $X2=6.87 $Y2=0.98
r159 30 31 46.9733 $w=1.68e-07 $l=7.2e-07 $layer=LI1_cond $X=6.9 $Y=1.065
+ $X2=6.9 $Y2=1.785
r160 29 41 3.70735 $w=2.5e-07 $l=8.5e-08 $layer=LI1_cond $X=6.555 $Y=1.91
+ $X2=6.47 $Y2=1.91
r161 28 31 7.14316 $w=2.5e-07 $l=1.62019e-07 $layer=LI1_cond $X=6.815 $Y=1.91
+ $X2=6.9 $Y2=1.785
r162 28 29 11.9854 $w=2.48e-07 $l=2.6e-07 $layer=LI1_cond $X=6.815 $Y=1.91
+ $X2=6.555 $Y2=1.91
r163 24 41 2.76166 $w=1.7e-07 $l=1.25e-07 $layer=LI1_cond $X=6.47 $Y=2.035
+ $X2=6.47 $Y2=1.91
r164 24 26 11.4171 $w=1.68e-07 $l=1.75e-07 $layer=LI1_cond $X=6.47 $Y=2.035
+ $X2=6.47 $Y2=2.21
r165 23 38 0.716491 $w=2.5e-07 $l=1.25e-07 $layer=LI1_cond $X=5.885 $Y=1.91
+ $X2=5.76 $Y2=1.91
r166 22 41 3.70735 $w=2.5e-07 $l=8.5e-08 $layer=LI1_cond $X=6.385 $Y=1.91
+ $X2=6.47 $Y2=1.91
r167 22 23 23.0489 $w=2.48e-07 $l=5e-07 $layer=LI1_cond $X=6.385 $Y=1.91
+ $X2=5.885 $Y2=1.91
r168 19 56 17.0164 $w=1.5e-07 $l=1.65e-07 $layer=POLY_cond $X=8.02 $Y=0.985
+ $X2=8.02 $Y2=1.15
r169 19 21 138.173 $w=1.5e-07 $l=4.3e-07 $layer=POLY_cond $X=8.02 $Y=0.985
+ $X2=8.02 $Y2=0.555
r170 15 49 30.5616 $w=2.76e-07 $l=2.43926e-07 $layer=POLY_cond $X=7.785 $Y=1.315
+ $X2=7.96 $Y2=1.15
r171 15 17 384.574 $w=1.5e-07 $l=7.5e-07 $layer=POLY_cond $X=7.785 $Y=1.315
+ $X2=7.785 $Y2=2.065
r172 13 53 189.723 $w=1.5e-07 $l=3.7e-07 $layer=POLY_cond $X=5.61 $Y=2.275
+ $X2=5.61 $Y2=1.905
r173 9 52 579.426 $w=1.5e-07 $l=1.13e-06 $layer=POLY_cond $X=5.61 $Y=0.445
+ $X2=5.61 $Y2=1.575
r174 2 41 600 $w=1.7e-07 $l=3.38748e-07 $layer=licon1_PDIFF $count=1 $X=6.215
+ $Y=2.065 $X2=6.47 $Y2=1.87
r175 2 26 600 $w=1.7e-07 $l=3.19374e-07 $layer=licon1_PDIFF $count=1 $X=6.215
+ $Y=2.065 $X2=6.47 $Y2=2.21
r176 1 43 182 $w=1.7e-07 $l=5.08035e-07 $layer=licon1_NDIFF $count=1 $X=6.735
+ $Y=0.235 $X2=6.87 $Y2=0.68
.ends

.subckt PM_SKY130_FD_SC_HD__SDFBBN_2%SET_B 1 3 7 11 15 17 19 20 26 27 33
c131 33 0 1.0279e-19 $X=9.935 $Y=0.98
c132 19 0 1.0411e-19 $X=9.745 $Y=0.85
c133 15 0 1.0852e-19 $X=10.055 $Y=2.275
r134 33 36 46.2115 $w=3.3e-07 $l=1.65e-07 $layer=POLY_cond $X=9.965 $Y=0.98
+ $X2=9.965 $Y2=1.145
r135 33 35 46.2115 $w=3.3e-07 $l=1.65e-07 $layer=POLY_cond $X=9.965 $Y=0.98
+ $X2=9.965 $Y2=0.815
r136 27 33 145.28 $w=1.7e-07 $l=1.7e-07 $layer=licon1_POLY $count=1 $X=9.935
+ $Y=0.98 $X2=9.935 $Y2=0.98
r137 26 27 9.3 $w=1.7e-07 $l=1.7e-07 $layer=mcon $count=1 $X=9.89 $Y=0.85
+ $X2=9.89 $Y2=0.85
r138 20 22 0.115467 $w=2.3e-07 $l=1.45e-07 $layer=MET1_cond $X=6.355 $Y=0.85
+ $X2=6.21 $Y2=0.85
r139 19 26 0.115467 $w=2.3e-07 $l=1.45e-07 $layer=MET1_cond $X=9.745 $Y=0.85
+ $X2=9.89 $Y2=0.85
r140 19 20 4.19554 $w=1.4e-07 $l=3.39e-06 $layer=MET1_cond $X=9.745 $Y=0.85
+ $X2=6.355 $Y2=0.85
r141 17 30 145.28 $w=1.7e-07 $l=1.7e-07 $layer=licon1_POLY $count=1 $X=6.05
+ $Y=0.98 $X2=6.05 $Y2=0.98
r142 17 22 9.3 $w=1.7e-07 $l=1.7e-07 $layer=mcon $count=1 $X=6.21 $Y=0.85
+ $X2=6.21 $Y2=0.85
r143 15 36 579.426 $w=1.5e-07 $l=1.13e-06 $layer=POLY_cond $X=10.055 $Y=2.275
+ $X2=10.055 $Y2=1.145
r144 11 35 189.723 $w=1.5e-07 $l=3.7e-07 $layer=POLY_cond $X=9.945 $Y=0.445
+ $X2=9.945 $Y2=0.815
r145 5 30 38.5432 $w=3.18e-07 $l=2.07123e-07 $layer=POLY_cond $X=6.18 $Y=0.815
+ $X2=6.085 $Y2=0.98
r146 5 7 189.723 $w=1.5e-07 $l=3.7e-07 $layer=POLY_cond $X=6.18 $Y=0.815
+ $X2=6.18 $Y2=0.445
r147 1 30 38.5432 $w=3.18e-07 $l=1.90526e-07 $layer=POLY_cond $X=6.14 $Y=1.145
+ $X2=6.085 $Y2=0.98
r148 1 3 579.426 $w=1.5e-07 $l=1.13e-06 $layer=POLY_cond $X=6.14 $Y=1.145
+ $X2=6.14 $Y2=2.275
.ends

.subckt PM_SKY130_FD_SC_HD__SDFBBN_2%A_931_47# 1 2 9 13 15 19 24 26 27 32 35
c106 35 0 1.0411e-19 $X=6.56 $Y=1.32
c107 32 0 4.43992e-20 $X=5.715 $Y=1.3
r108 35 38 46.2115 $w=3.3e-07 $l=1.65e-07 $layer=POLY_cond $X=6.59 $Y=1.32
+ $X2=6.59 $Y2=1.485
r109 35 37 46.2115 $w=3.3e-07 $l=1.65e-07 $layer=POLY_cond $X=6.59 $Y=1.32
+ $X2=6.59 $Y2=1.155
r110 34 35 145.28 $w=1.7e-07 $l=1.7e-07 $layer=licon1_POLY $count=1 $X=6.56
+ $Y=1.32 $X2=6.56 $Y2=1.32
r111 31 32 4.92405 $w=2.08e-07 $l=8.5e-08 $layer=LI1_cond $X=5.63 $Y=1.3
+ $X2=5.715 $Y2=1.3
r112 29 31 13.2035 $w=2.08e-07 $l=2.5e-07 $layer=LI1_cond $X=5.38 $Y=1.3
+ $X2=5.63 $Y2=1.3
r113 27 34 8.9562 $w=3.2e-07 $l=1.65e-07 $layer=LI1_cond $X=6.395 $Y=1.32
+ $X2=6.56 $Y2=1.32
r114 27 32 44.3636 $w=1.68e-07 $l=6.8e-07 $layer=LI1_cond $X=6.395 $Y=1.32
+ $X2=5.715 $Y2=1.32
r115 26 31 1.9771 $w=1.7e-07 $l=1.05e-07 $layer=LI1_cond $X=5.63 $Y=1.195
+ $X2=5.63 $Y2=1.3
r116 25 26 47.6257 $w=1.68e-07 $l=7.3e-07 $layer=LI1_cond $X=5.63 $Y=0.465
+ $X2=5.63 $Y2=1.195
r117 23 29 1.9771 $w=1.7e-07 $l=1.05e-07 $layer=LI1_cond $X=5.38 $Y=1.405
+ $X2=5.38 $Y2=1.3
r118 23 24 55.1283 $w=1.68e-07 $l=8.45e-07 $layer=LI1_cond $X=5.38 $Y=1.405
+ $X2=5.38 $Y2=2.25
r119 19 25 6.87494 $w=2e-07 $l=1.36015e-07 $layer=LI1_cond $X=5.545 $Y=0.365
+ $X2=5.63 $Y2=0.465
r120 19 21 37.7091 $w=1.98e-07 $l=6.8e-07 $layer=LI1_cond $X=5.545 $Y=0.365
+ $X2=4.865 $Y2=0.365
r121 15 24 6.81649 $w=1.7e-07 $l=1.20208e-07 $layer=LI1_cond $X=5.295 $Y=2.335
+ $X2=5.38 $Y2=2.25
r122 15 17 32.2941 $w=1.68e-07 $l=4.95e-07 $layer=LI1_cond $X=5.295 $Y=2.335
+ $X2=4.8 $Y2=2.335
r123 13 38 297.404 $w=1.5e-07 $l=5.8e-07 $layer=POLY_cond $X=6.68 $Y=2.065
+ $X2=6.68 $Y2=1.485
r124 9 37 307.66 $w=1.5e-07 $l=6e-07 $layer=POLY_cond $X=6.66 $Y=0.555 $X2=6.66
+ $Y2=1.155
r125 2 17 600 $w=1.7e-07 $l=3.30681e-07 $layer=licon1_PDIFF $count=1 $X=4.665
+ $Y=2.065 $X2=4.8 $Y2=2.335
r126 1 21 182 $w=1.7e-07 $l=2.73038e-07 $layer=licon1_NDIFF $count=1 $X=4.655
+ $Y=0.235 $X2=4.865 $Y2=0.38
.ends

.subckt PM_SKY130_FD_SC_HD__SDFBBN_2%A_1401_21# 1 2 7 9 10 12 16 20 22 23 24 26
+ 30 33 41 42 45 48 53 56
c156 53 0 1.89563e-19 $X=10.955 $Y=1.32
c157 41 0 2.58372e-20 $X=11.125 $Y=1.53
c158 26 0 1.511e-19 $X=11.76 $Y=1.66
c159 7 0 9.81116e-20 $X=7.08 $Y=0.95
r160 55 56 145.28 $w=1.7e-07 $l=1.7e-07 $layer=licon1_POLY $count=1 $X=11.165
+ $Y=1.32 $X2=11.165 $Y2=1.32
r161 53 55 32.9707 $w=3.07e-07 $l=2.1e-07 $layer=POLY_cond $X=10.955 $Y=1.32
+ $X2=11.165 $Y2=1.32
r162 52 53 9.4202 $w=3.07e-07 $l=6e-08 $layer=POLY_cond $X=10.895 $Y=1.32
+ $X2=10.955 $Y2=1.32
r163 49 56 8.80047 $w=2.73e-07 $l=2.1e-07 $layer=LI1_cond $X=11.217 $Y=1.53
+ $X2=11.217 $Y2=1.32
r164 48 49 9.3 $w=1.7e-07 $l=1.7e-07 $layer=mcon $count=1 $X=11.27 $Y=1.53
+ $X2=11.27 $Y2=1.53
r165 44 45 9.3 $w=1.7e-07 $l=1.7e-07 $layer=mcon $count=1 $X=8.05 $Y=1.53
+ $X2=8.05 $Y2=1.53
r166 42 44 0.115467 $w=2.3e-07 $l=1.45e-07 $layer=MET1_cond $X=8.195 $Y=1.53
+ $X2=8.05 $Y2=1.53
r167 41 48 0.115467 $w=2.3e-07 $l=1.45e-07 $layer=MET1_cond $X=11.125 $Y=1.53
+ $X2=11.27 $Y2=1.53
r168 41 42 3.62623 $w=1.4e-07 $l=2.93e-06 $layer=MET1_cond $X=11.125 $Y=1.53
+ $X2=8.195 $Y2=1.53
r169 40 49 1.88582 $w=2.73e-07 $l=4.5e-08 $layer=LI1_cond $X=11.217 $Y=1.575
+ $X2=11.217 $Y2=1.53
r170 39 56 16.5533 $w=2.73e-07 $l=3.95e-07 $layer=LI1_cond $X=11.217 $Y=0.925
+ $X2=11.217 $Y2=1.32
r171 37 45 27.1304 $w=2.38e-07 $l=5.65e-07 $layer=LI1_cond $X=7.485 $Y=1.535
+ $X2=8.05 $Y2=1.535
r172 36 37 2.60351 $w=2.4e-07 $l=1.65e-07 $layer=LI1_cond $X=7.32 $Y=1.535
+ $X2=7.485 $Y2=1.535
r173 33 36 7.50834 $w=3.28e-07 $l=2.15e-07 $layer=LI1_cond $X=7.32 $Y=1.32
+ $X2=7.32 $Y2=1.535
r174 33 34 145.28 $w=1.7e-07 $l=1.7e-07 $layer=licon1_POLY $count=1 $X=7.32
+ $Y=1.32 $X2=7.32 $Y2=1.32
r175 28 30 16.6464 $w=2.23e-07 $l=3.25e-07 $layer=LI1_cond $X=11.732 $Y=0.755
+ $X2=11.732 $Y2=0.43
r176 24 40 7.32204 $w=1.7e-07 $l=1.75425e-07 $layer=LI1_cond $X=11.355 $Y=1.66
+ $X2=11.217 $Y2=1.575
r177 24 26 26.4225 $w=1.68e-07 $l=4.05e-07 $layer=LI1_cond $X=11.355 $Y=1.66
+ $X2=11.76 $Y2=1.66
r178 23 39 7.32204 $w=1.7e-07 $l=1.75425e-07 $layer=LI1_cond $X=11.355 $Y=0.84
+ $X2=11.217 $Y2=0.925
r179 22 28 6.9898 $w=1.7e-07 $l=1.4854e-07 $layer=LI1_cond $X=11.62 $Y=0.84
+ $X2=11.732 $Y2=0.755
r180 22 23 17.2888 $w=1.68e-07 $l=2.65e-07 $layer=LI1_cond $X=11.62 $Y=0.84
+ $X2=11.355 $Y2=0.84
r181 18 53 19.5117 $w=1.5e-07 $l=1.65e-07 $layer=POLY_cond $X=10.955 $Y=1.155
+ $X2=10.955 $Y2=1.32
r182 18 20 307.66 $w=1.5e-07 $l=6e-07 $layer=POLY_cond $X=10.955 $Y=1.155
+ $X2=10.955 $Y2=0.555
r183 14 52 19.5117 $w=1.5e-07 $l=1.65e-07 $layer=POLY_cond $X=10.895 $Y=1.485
+ $X2=10.895 $Y2=1.32
r184 14 16 297.404 $w=1.5e-07 $l=5.8e-07 $layer=POLY_cond $X=10.895 $Y=1.485
+ $X2=10.895 $Y2=2.065
r185 10 34 38.5876 $w=3.28e-07 $l=2.20624e-07 $layer=POLY_cond $X=7.1 $Y=1.485
+ $X2=7.23 $Y2=1.32
r186 10 12 297.404 $w=1.5e-07 $l=5.8e-07 $layer=POLY_cond $X=7.1 $Y=1.485
+ $X2=7.1 $Y2=2.065
r187 7 34 68.7126 $w=3.28e-07 $l=4.38634e-07 $layer=POLY_cond $X=7.08 $Y=0.95
+ $X2=7.23 $Y2=1.32
r188 7 9 126.927 $w=1.5e-07 $l=3.95e-07 $layer=POLY_cond $X=7.08 $Y=0.95
+ $X2=7.08 $Y2=0.555
r189 2 26 600 $w=1.7e-07 $l=2.08327e-07 $layer=licon1_PDIFF $count=1 $X=11.635
+ $Y=1.505 $X2=11.76 $Y2=1.66
r190 1 30 182 $w=1.7e-07 $l=2.498e-07 $layer=licon1_NDIFF $count=1 $X=11.635
+ $Y=0.235 $X2=11.76 $Y2=0.43
.ends

.subckt PM_SKY130_FD_SC_HD__SDFBBN_2%A_1888_21# 1 2 9 13 15 17 20 24 28 30 31 33
+ 35 36 38 39 41 44 46 49 53 54 56 57 60 62 65 66 69 70 74 76 78
c195 78 0 1.15981e-19 $X=12.395 $Y=1.16
c196 74 0 1.22108e-19 $X=10.82 $Y=0.687
c197 20 0 1.511e-19 $X=12.455 $Y=1.985
c198 9 0 8.81272e-20 $X=9.515 $Y=0.445
r199 79 86 9.87031 $w=2.93e-07 $l=6e-08 $layer=POLY_cond $X=12.395 $Y=1.16
+ $X2=12.455 $Y2=1.16
r200 78 81 8.91885 $w=2.38e-07 $l=1.65e-07 $layer=LI1_cond $X=12.36 $Y=1.16
+ $X2=12.36 $Y2=1.325
r201 78 79 145.28 $w=1.7e-07 $l=1.7e-07 $layer=licon1_POLY $count=1 $X=12.395
+ $Y=1.16 $X2=12.395 $Y2=1.16
r202 72 74 4.49631 $w=1.83e-07 $l=7.5e-08 $layer=LI1_cond $X=10.745 $Y=0.687
+ $X2=10.82 $Y2=0.687
r203 69 81 38.492 $w=1.68e-07 $l=5.9e-07 $layer=LI1_cond $X=12.325 $Y=1.915
+ $X2=12.325 $Y2=1.325
r204 67 76 5.41628 $w=1.7e-07 $l=9e-08 $layer=LI1_cond $X=10.91 $Y=2 $X2=10.82
+ $Y2=2
r205 66 69 6.81649 $w=1.7e-07 $l=1.20208e-07 $layer=LI1_cond $X=12.24 $Y=2
+ $X2=12.325 $Y2=1.915
r206 66 67 86.7701 $w=1.68e-07 $l=1.33e-06 $layer=LI1_cond $X=12.24 $Y=2
+ $X2=10.91 $Y2=2
r207 65 76 1.13756 $w=1.8e-07 $l=8.5e-08 $layer=LI1_cond $X=10.82 $Y=1.915
+ $X2=10.82 $Y2=2
r208 64 74 0.88302 $w=1.8e-07 $l=9.3e-08 $layer=LI1_cond $X=10.82 $Y=0.78
+ $X2=10.82 $Y2=0.687
r209 64 65 69.9343 $w=1.78e-07 $l=1.135e-06 $layer=LI1_cond $X=10.82 $Y=0.78
+ $X2=10.82 $Y2=1.915
r210 63 70 5.16603 $w=1.7e-07 $l=8.5e-08 $layer=LI1_cond $X=10.41 $Y=2
+ $X2=10.325 $Y2=2
r211 62 76 5.41628 $w=1.7e-07 $l=9e-08 $layer=LI1_cond $X=10.73 $Y=2 $X2=10.82
+ $Y2=2
r212 62 63 20.877 $w=1.68e-07 $l=3.2e-07 $layer=LI1_cond $X=10.73 $Y=2 $X2=10.41
+ $Y2=2
r213 58 70 1.34256 $w=1.7e-07 $l=8.5e-08 $layer=LI1_cond $X=10.325 $Y=2.085
+ $X2=10.325 $Y2=2
r214 58 60 8.15508 $w=1.68e-07 $l=1.25e-07 $layer=LI1_cond $X=10.325 $Y=2.085
+ $X2=10.325 $Y2=2.21
r215 56 70 5.16603 $w=1.7e-07 $l=8.5e-08 $layer=LI1_cond $X=10.24 $Y=2
+ $X2=10.325 $Y2=2
r216 56 57 28.7059 $w=1.68e-07 $l=4.4e-07 $layer=LI1_cond $X=10.24 $Y=2 $X2=9.8
+ $Y2=2
r217 54 84 46.2115 $w=3.3e-07 $l=1.65e-07 $layer=POLY_cond $X=9.605 $Y=1.74
+ $X2=9.605 $Y2=1.905
r218 54 83 46.2115 $w=3.3e-07 $l=1.65e-07 $layer=POLY_cond $X=9.605 $Y=1.74
+ $X2=9.605 $Y2=1.575
r219 53 54 145.28 $w=1.7e-07 $l=1.7e-07 $layer=licon1_POLY $count=1 $X=9.635
+ $Y=1.74 $X2=9.635 $Y2=1.74
r220 51 57 7.14316 $w=1.7e-07 $l=1.62019e-07 $layer=LI1_cond $X=9.675 $Y=1.915
+ $X2=9.8 $Y2=2
r221 51 53 8.0671 $w=2.48e-07 $l=1.75e-07 $layer=LI1_cond $X=9.675 $Y=1.915
+ $X2=9.675 $Y2=1.74
r222 47 49 66.6596 $w=1.5e-07 $l=1.3e-07 $layer=POLY_cond $X=13.685 $Y=1.61
+ $X2=13.815 $Y2=1.61
r223 42 44 66.6596 $w=1.5e-07 $l=1.3e-07 $layer=POLY_cond $X=13.685 $Y=0.805
+ $X2=13.815 $Y2=0.805
r224 39 49 2.83073 $w=1.5e-07 $l=7.5e-08 $layer=POLY_cond $X=13.815 $Y=1.685
+ $X2=13.815 $Y2=1.61
r225 39 41 128.533 $w=1.5e-07 $l=4e-07 $layer=POLY_cond $X=13.815 $Y=1.685
+ $X2=13.815 $Y2=2.085
r226 36 44 2.83073 $w=1.5e-07 $l=7.5e-08 $layer=POLY_cond $X=13.815 $Y=0.73
+ $X2=13.815 $Y2=0.805
r227 36 38 91.58 $w=1.5e-07 $l=2.85e-07 $layer=POLY_cond $X=13.815 $Y=0.73
+ $X2=13.815 $Y2=0.445
r228 35 47 2.83073 $w=1.5e-07 $l=7.5e-08 $layer=POLY_cond $X=13.685 $Y=1.535
+ $X2=13.685 $Y2=1.61