* File: sky130_fd_sc_hd__fahcin_1.spice.pex
* Created: Thu Aug 27 14:21:31 2020
* Program "Calibre xRC"
* Version "v2018.4_34.26"
* Nominal Temperature: 27C
* Circuit Temperature: 27C
* 
.subckt PM_SKY130_FD_SC_HD__FAHCIN_1%A_67_199# 1 2 3 4 5 18 21 23 24 25 27 28 29
+ 32 33 37 42 47 51 54 55 56 57 60 64 66 67 70
c188 57 0 1.08163e-19 $X=2.8 $Y=1.87
c189 55 0 1.08972e-19 $X=2.11 $Y=1.87
c190 51 0 1.21052e-19 $X=2.1 $Y=0.36
c191 42 0 3.27481e-19 $X=0.51 $Y=1.16
r192 66 67 9.3 $w=1.7e-07 $l=1.7e-07 $layer=mcon $count=1 $X=4.225 $Y=1.87
+ $X2=4.225 $Y2=1.87
r193 63 64 9.3 $w=1.7e-07 $l=1.7e-07 $layer=mcon $count=1 $X=2.655 $Y=1.87
+ $X2=2.655 $Y2=1.87
r194 59 60 9.3 $w=1.7e-07 $l=1.7e-07 $layer=mcon $count=1 $X=1.965 $Y=1.87
+ $X2=1.965 $Y2=1.87
r195 57 63 0.115467 $w=2.3e-07 $l=1.45e-07 $layer=MET1_cond $X=2.8 $Y=1.87
+ $X2=2.655 $Y2=1.87
r196 56 66 0.115467 $w=2.3e-07 $l=1.45e-07 $layer=MET1_cond $X=4.08 $Y=1.87
+ $X2=4.225 $Y2=1.87
r197 56 57 1.58416 $w=1.4e-07 $l=1.28e-06 $layer=MET1_cond $X=4.08 $Y=1.87
+ $X2=2.8 $Y2=1.87
r198 55 59 0.115467 $w=2.3e-07 $l=1.45e-07 $layer=MET1_cond $X=2.11 $Y=1.87
+ $X2=1.965 $Y2=1.87
r199 54 63 0.115467 $w=2.3e-07 $l=1.45e-07 $layer=MET1_cond $X=2.51 $Y=1.87
+ $X2=2.655 $Y2=1.87
r200 54 55 0.495049 $w=1.4e-07 $l=4e-07 $layer=MET1_cond $X=2.51 $Y=1.87
+ $X2=2.11 $Y2=1.87
r201 49 60 33.5989 $w=1.68e-07 $l=5.15e-07 $layer=LI1_cond $X=1.45 $Y=1.87
+ $X2=1.965 $Y2=1.87
r202 48 49 0.716491 $w=1.7e-07 $l=8.5e-08 $layer=LI1_cond $X=1.365 $Y=1.87
+ $X2=1.45 $Y2=1.87
r203 47 48 18.5936 $w=1.68e-07 $l=2.85e-07 $layer=LI1_cond $X=1.365 $Y=1.585
+ $X2=1.365 $Y2=1.87
r204 42 71 46.2115 $w=3.3e-07 $l=1.65e-07 $layer=POLY_cond $X=0.5 $Y=1.16
+ $X2=0.5 $Y2=1.325
r205 42 70 46.2115 $w=3.3e-07 $l=1.65e-07 $layer=POLY_cond $X=0.5 $Y=1.16
+ $X2=0.5 $Y2=0.995
r206 41 42 145.28 $w=1.7e-07 $l=1.7e-07 $layer=licon1_POLY $count=1 $X=0.51
+ $Y=1.16 $X2=0.51 $Y2=1.16
r207 37 53 42.1222 $w=2.34e-07 $l=8.29036e-07 $layer=LI1_cond $X=2.515 $Y=0.34
+ $X2=3.305 $Y2=0.42
r208 37 51 27.0749 $w=1.68e-07 $l=4.15e-07 $layer=LI1_cond $X=2.515 $Y=0.34
+ $X2=2.1 $Y2=0.34
r209 34 44 4.43891 $w=2.1e-07 $l=1.65e-07 $layer=LI1_cond $X=1.325 $Y=0.36
+ $X2=1.16 $Y2=0.36
r210 34 36 29.5758 $w=2.08e-07 $l=5.6e-07 $layer=LI1_cond $X=1.325 $Y=0.36
+ $X2=1.885 $Y2=0.36
r211 33 51 5.98033 $w=2.08e-07 $l=1.05e-07 $layer=LI1_cond $X=1.995 $Y=0.36
+ $X2=2.1 $Y2=0.36
r212 33 36 5.80952 $w=2.08e-07 $l=1.1e-07 $layer=LI1_cond $X=1.995 $Y=0.36
+ $X2=1.885 $Y2=0.36
r213 30 32 0.523838 $w=3.28e-07 $l=1.5e-08 $layer=LI1_cond $X=1.16 $Y=0.735
+ $X2=1.16 $Y2=0.72
r214 29 44 2.82476 $w=3.3e-07 $l=1.05e-07 $layer=LI1_cond $X=1.16 $Y=0.465
+ $X2=1.16 $Y2=0.36
r215 29 32 8.90524 $w=3.28e-07 $l=2.55e-07 $layer=LI1_cond $X=1.16 $Y=0.465
+ $X2=1.16 $Y2=0.72
r216 27 47 0.716491 $w=1.7e-07 $l=8.5e-08 $layer=LI1_cond $X=1.28 $Y=1.585
+ $X2=1.365 $Y2=1.585
r217 27 28 32.6203 $w=1.68e-07 $l=5e-07 $layer=LI1_cond $X=1.28 $Y=1.585
+ $X2=0.78 $Y2=1.585
r218 26 41 15.1941 $w=2.73e-07 $l=4.19667e-07 $layer=LI1_cond $X=0.78 $Y=0.82
+ $X2=0.602 $Y2=1.16
r219 25 30 7.76618 $w=1.7e-07 $l=2.03101e-07 $layer=LI1_cond $X=0.995 $Y=0.82
+ $X2=1.16 $Y2=0.735
r220 25 26 14.0267 $w=1.68e-07 $l=2.15e-07 $layer=LI1_cond $X=0.995 $Y=0.82
+ $X2=0.78 $Y2=0.82
r221 24 28 6.81649 $w=1.7e-07 $l=1.20208e-07 $layer=LI1_cond $X=0.695 $Y=1.5
+ $X2=0.78 $Y2=1.585
r222 23 41 9.1003 $w=2.73e-07 $l=2.06325e-07 $layer=LI1_cond $X=0.695 $Y=1.325
+ $X2=0.602 $Y2=1.16
r223 23 24 11.4171 $w=1.68e-07 $l=1.75e-07 $layer=LI1_cond $X=0.695 $Y=1.325
+ $X2=0.695 $Y2=1.5
r224 21 71 338.426 $w=1.5e-07 $l=6.6e-07 $layer=POLY_cond $X=0.475 $Y=1.985
+ $X2=0.475 $Y2=1.325
r225 18 70 141.387 $w=1.5e-07 $l=4.4e-07 $layer=POLY_cond $X=0.475 $Y=0.555
+ $X2=0.475 $Y2=0.995
r226 5 67 600 $w=1.7e-07 $l=4.32262e-07 $layer=licon1_PDIFF $count=1 $X=4.145
+ $Y=1.61 $X2=4.28 $Y2=1.98
r227 4 64 600 $w=1.7e-07 $l=5.38284e-07 $layer=licon1_PDIFF $count=1 $X=2.595
+ $Y=1.485 $X2=2.73 $Y2=1.96
r228 3 47 600 $w=1.7e-07 $l=3.94873e-07 $layer=licon1_PDIFF $count=1 $X=1.05
+ $Y=1.485 $X2=1.365 $Y2=1.665
r229 2 53 182 $w=1.7e-07 $l=2.39479e-07 $layer=licon1_NDIFF $count=1 $X=3.18
+ $Y=0.235 $X2=3.305 $Y2=0.42
r230 1 44 182 $w=1.7e-07 $l=2.01494e-07 $layer=licon1_NDIFF $count=1 $X=1.025
+ $Y=0.235 $X2=1.16 $Y2=0.38
r231 1 36 182 $w=1.7e-07 $l=9.29677e-07 $layer=licon1_NDIFF $count=1 $X=1.025
+ $Y=0.235 $X2=1.885 $Y2=0.38
r232 1 32 182 $w=1.7e-07 $l=5.48361e-07 $layer=licon1_NDIFF $count=1 $X=1.025
+ $Y=0.235 $X2=1.16 $Y2=0.72
.ends

.subckt PM_SKY130_FD_SC_HD__FAHCIN_1%A 1 3 6 8 14
c42 8 0 1.76755e-19 $X=1.15 $Y=1.19
c43 1 0 5.07203e-20 $X=0.95 $Y=0.995
r44 12 14 34.9723 $w=3.3e-07 $l=2e-07 $layer=POLY_cond $X=0.975 $Y=1.16
+ $X2=1.175 $Y2=1.16
r45 10 12 4.37153 $w=3.3e-07 $l=2.5e-08 $layer=POLY_cond $X=0.95 $Y=1.16
+ $X2=0.975 $Y2=1.16
r46 8 14 145.28 $w=1.7e-07 $l=1.7e-07 $layer=licon1_POLY $count=1 $X=1.175
+ $Y=1.16 $X2=1.175 $Y2=1.16
r47 4 12 21.2229 $w=1.5e-07 $l=1.65e-07 $layer=POLY_cond $X=0.975 $Y=1.325
+ $X2=0.975 $Y2=1.16
r48 4 6 338.426 $w=1.5e-07 $l=6.6e-07 $layer=POLY_cond $X=0.975 $Y=1.325
+ $X2=0.975 $Y2=1.985
r49 1 10 21.2229 $w=1.5e-07 $l=1.65e-07 $layer=POLY_cond $X=0.95 $Y=0.995
+ $X2=0.95 $Y2=1.16
r50 1 3 139.78 $w=1.5e-07 $l=4.35e-07 $layer=POLY_cond $X=0.95 $Y=0.995 $X2=0.95
+ $Y2=0.56
.ends

.subckt PM_SKY130_FD_SC_HD__FAHCIN_1%B 1 3 6 10 14 15 17 20 22 23 25 26 28 29 30
+ 32 33 35 41 42
c158 42 0 1.03248e-19 $X=4.37 $Y=0.85
c159 32 0 1.85123e-19 $X=4.225 $Y=0.85
c160 25 0 5.53651e-20 $X=4.27 $Y=1.16
c161 6 0 1.08163e-19 $X=2.095 $Y=1.905
r162 49 50 145.28 $w=1.7e-07 $l=1.7e-07 $layer=licon1_POLY $count=1 $X=4.325
+ $Y=1.16 $X2=4.325 $Y2=1.16
r163 45 46 145.28 $w=1.7e-07 $l=1.7e-07 $layer=licon1_POLY $count=1 $X=1.655
+ $Y=1.16 $X2=1.655 $Y2=1.16
r164 42 50 14.2903 $w=2.48e-07 $l=3.1e-07 $layer=LI1_cond $X=4.365 $Y=0.85
+ $X2=4.365 $Y2=1.16
r165 41 42 9.3 $w=1.7e-07 $l=1.7e-07 $layer=mcon $count=1 $X=4.37 $Y=0.85
+ $X2=4.37 $Y2=0.85
r166 33 35 0.115467 $w=2.3e-07 $l=1.45e-07 $layer=MET1_cond $X=1.755 $Y=0.85
+ $X2=1.61 $Y2=0.85
r167 32 41 0.115467 $w=2.3e-07 $l=1.45e-07 $layer=MET1_cond $X=4.225 $Y=0.85
+ $X2=4.37 $Y2=0.85
r168 32 33 3.05692 $w=1.4e-07 $l=2.47e-06 $layer=MET1_cond $X=4.225 $Y=0.85
+ $X2=1.755 $Y2=0.85
r169 30 46 15.5329 $w=2.28e-07 $l=3.1e-07 $layer=LI1_cond $X=1.625 $Y=0.85
+ $X2=1.625 $Y2=1.16
r170 30 35 9.3 $w=1.7e-07 $l=1.7e-07 $layer=mcon $count=1 $X=1.61 $Y=0.85
+ $X2=1.61 $Y2=0.85
r171 28 49 126.774 $w=3.3e-07 $l=7.25e-07 $layer=POLY_cond $X=5.05 $Y=1.16
+ $X2=4.325 $Y2=1.16
r172 28 29 5.03009 $w=3.3e-07 $l=7.5e-08 $layer=POLY_cond $X=5.05 $Y=1.16
+ $X2=5.125 $Y2=1.16
r173 25 49 9.61737 $w=3.3e-07 $l=5.5e-08 $layer=POLY_cond $X=4.27 $Y=1.16
+ $X2=4.325 $Y2=1.16
r174 25 27 48.1214 $w=2.85e-07 $l=1.65e-07 $layer=POLY_cond $X=4.127 $Y=1.16
+ $X2=4.127 $Y2=1.325
r175 25 26 48.1214 $w=2.85e-07 $l=1.65e-07 $layer=POLY_cond $X=4.127 $Y=1.16
+ $X2=4.127 $Y2=0.995
r176 22 45 63.8244 $w=3.3e-07 $l=3.65e-07 $layer=POLY_cond $X=2.02 $Y=1.16
+ $X2=1.655 $Y2=1.16
r177 22 23 5.03009 $w=3.3e-07 $l=7.5e-08 $layer=POLY_cond $X=2.02 $Y=1.16
+ $X2=2.095 $Y2=1.16
r178 18 29 37.0704 $w=1.5e-07 $l=1.65e-07 $layer=POLY_cond $X=5.125 $Y=1.325
+ $X2=5.125 $Y2=1.16
r179 18 20 338.426 $w=1.5e-07 $l=6.6e-07 $layer=POLY_cond $X=5.125 $Y=1.325
+ $X2=5.125 $Y2=1.985
r180 15 29 37.0704 $w=1.5e-07 $l=1.65e-07 $layer=POLY_cond $X=5.125 $Y=0.995
+ $X2=5.125 $Y2=1.16
r181 15 17 139.78 $w=1.5e-07 $l=4.35e-07 $layer=POLY_cond $X=5.125 $Y=0.995
+ $X2=5.125 $Y2=0.56
r182 14 26 138.173 $w=1.5e-07 $l=4.3e-07 $layer=POLY_cond $X=4.195 $Y=0.565
+ $X2=4.195 $Y2=0.995
r183 10 27 361.5 $w=1.5e-07 $l=7.05e-07 $layer=POLY_cond $X=4.07 $Y=2.03
+ $X2=4.07 $Y2=1.325
r184 4 23 37.0704 $w=1.5e-07 $l=1.65e-07 $layer=POLY_cond $X=2.095 $Y=1.325
+ $X2=2.095 $Y2=1.16
r185 4 6 297.404 $w=1.5e-07 $l=5.8e-07 $layer=POLY_cond $X=2.095 $Y=1.325
+ $X2=2.095 $Y2=1.905
r186 1 23 37.0704 $w=1.5e-07 $l=1.65e-07 $layer=POLY_cond $X=2.095 $Y=0.995
+ $X2=2.095 $Y2=1.16
r187 1 3 138.173 $w=1.5e-07 $l=4.3e-07 $layer=POLY_cond $X=2.095 $Y=0.995
+ $X2=2.095 $Y2=0.565
.ends

.subckt PM_SKY130_FD_SC_HD__FAHCIN_1%A_489_21# 1 2 7 9 12 14 16 19 23 26 29 30
+ 31 34 38 39 42 46 47 50 53 54 58
c158 31 0 1.03248e-19 $X=3.557 $Y=1.16
c159 14 0 4.5918e-20 $X=3.53 $Y=0.995
c160 12 0 1.08972e-19 $X=2.52 $Y=1.905
c161 7 0 1.21052e-19 $X=2.52 $Y=0.995
r162 54 62 11.1457 $w=4.05e-07 $l=3.7e-07 $layer=LI1_cond $X=4.93 $Y=1.53
+ $X2=4.93 $Y2=1.16
r163 53 54 9.3 $w=1.7e-07 $l=1.7e-07 $layer=mcon $count=1 $X=4.845 $Y=1.53
+ $X2=4.845 $Y2=1.53
r164 49 50 9.3 $w=1.7e-07 $l=1.7e-07 $layer=mcon $count=1 $X=3.035 $Y=1.53
+ $X2=3.035 $Y2=1.53
r165 47 49 0.115467 $w=2.3e-07 $l=1.45e-07 $layer=MET1_cond $X=3.18 $Y=1.53
+ $X2=3.035 $Y2=1.53
r166 46 53 0.115467 $w=2.3e-07 $l=1.45e-07 $layer=MET1_cond $X=4.7 $Y=1.53
+ $X2=4.845 $Y2=1.53
r167 46 47 1.88118 $w=1.4e-07 $l=1.52e-06 $layer=MET1_cond $X=4.7 $Y=1.53
+ $X2=3.18 $Y2=1.53
r168 45 50 17.2888 $w=1.68e-07 $l=2.65e-07 $layer=LI1_cond $X=3.035 $Y=1.265
+ $X2=3.035 $Y2=1.53
r169 44 45 0.961343 $w=1.7e-07 $l=9.5e-08 $layer=LI1_cond $X=3.035 $Y=1.17
+ $X2=3.035 $Y2=1.265
r170 42 44 15.8531 $w=1.77e-07 $l=2.3e-07 $layer=LI1_cond $X=2.805 $Y=1.17
+ $X2=3.035 $Y2=1.17
r171 42 43 145.28 $w=1.7e-07 $l=1.7e-07 $layer=licon1_POLY $count=1 $X=2.805
+ $Y=1.16 $X2=2.805 $Y2=1.16
r172 39 59 47.9795 $w=3e-07 $l=1.65e-07 $layer=POLY_cond $X=5.56 $Y=1.16
+ $X2=5.56 $Y2=1.325
r173 39 58 47.9795 $w=3e-07 $l=1.65e-07 $layer=POLY_cond $X=5.56 $Y=1.16
+ $X2=5.56 $Y2=0.995
r174 38 39 145.28 $w=1.7e-07 $l=1.7e-07 $layer=licon1_POLY $count=1 $X=5.545
+ $Y=1.16 $X2=5.545 $Y2=1.16
r175 36 62 1.93884 $w=3.3e-07 $l=2.4e-07 $layer=LI1_cond $X=5.17 $Y=1.16
+ $X2=4.93 $Y2=1.16
r176 36 38 13.0959 $w=3.28e-07 $l=3.75e-07 $layer=LI1_cond $X=5.17 $Y=1.16
+ $X2=5.545 $Y2=1.16
r177 32 62 9.17697 $w=4.05e-07 $l=1.72337e-07 $layer=LI1_cond $X=4.915 $Y=0.995
+ $X2=4.93 $Y2=1.16
r178 32 34 16.6364 $w=1.68e-07 $l=2.55e-07 $layer=LI1_cond $X=4.915 $Y=0.995
+ $X2=4.915 $Y2=0.74
r179 30 43 113.66 $w=3.3e-07 $l=6.5e-07 $layer=POLY_cond $X=3.455 $Y=1.16
+ $X2=2.805 $Y2=1.16
r180 30 31 5.03009 $w=3.3e-07 $l=1.02e-07 $layer=POLY_cond $X=3.455 $Y=1.16
+ $X2=3.557 $Y2=1.16
r181 28 43 36.7209 $w=3.3e-07 $l=2.1e-07 $layer=POLY_cond $X=2.595 $Y=1.16
+ $X2=2.805 $Y2=1.16
r182 28 29 5.03009 $w=3.3e-07 $l=7.5e-08 $layer=POLY_cond $X=2.595 $Y=1.16
+ $X2=2.52 $Y2=1.16
r183 26 59 338.426 $w=1.5e-07 $l=6.6e-07 $layer=POLY_cond $X=5.635 $Y=1.985
+ $X2=5.635 $Y2=1.325
r184 23 58 138.173 $w=1.5e-07 $l=4.3e-07 $layer=POLY_cond $X=5.635 $Y=0.565
+ $X2=5.635 $Y2=0.995
r185 17 31 37.0704 $w=1.5e-07 $l=1.78452e-07 $layer=POLY_cond $X=3.585 $Y=1.325
+ $X2=3.557 $Y2=1.16
r186 17 19 297.404 $w=1.5e-07 $l=5.8e-07 $layer=POLY_cond $X=3.585 $Y=1.325
+ $X2=3.585 $Y2=1.905
r187 14 31 37.0704 $w=1.5e-07 $l=1.77989e-07 $layer=POLY_cond $X=3.53 $Y=0.995
+ $X2=3.557 $Y2=1.16
r188 14 16 141.387 $w=1.5e-07 $l=4.4e-07 $layer=POLY_cond $X=3.53 $Y=0.995
+ $X2=3.53 $Y2=0.555
r189 10 29 37.0704 $w=1.5e-07 $l=1.65e-07 $layer=POLY_cond $X=2.52 $Y=1.325
+ $X2=2.52 $Y2=1.16
r190 10 12 297.404 $w=1.5e-07 $l=5.8e-07 $layer=POLY_cond $X=2.52 $Y=1.325
+ $X2=2.52 $Y2=1.905
r191 7 29 37.0704 $w=1.5e-07 $l=1.65e-07 $layer=POLY_cond $X=2.52 $Y=0.995
+ $X2=2.52 $Y2=1.16
r192 7 9 138.173 $w=1.5e-07 $l=4.3e-07 $layer=POLY_cond $X=2.52 $Y=0.995
+ $X2=2.52 $Y2=0.565
r193 2 54 600 $w=1.7e-07 $l=2.08327e-07 $layer=licon1_PDIFF $count=1 $X=4.79
+ $Y=1.485 $X2=4.915 $Y2=1.64
r194 1 34 182 $w=1.7e-07 $l=1.8735e-07 $layer=licon1_NDIFF $count=1 $X=4.79
+ $Y=0.605 $X2=4.915 $Y2=0.74
.ends

.subckt PM_SKY130_FD_SC_HD__FAHCIN_1%A_434_49# 1 2 9 11 13 14 16 19 21 22 25 29
+ 30 31 32 35 39 41 49 53 54
c192 54 0 1.75206e-19 $X=8.935 $Y=1.16
c193 53 0 9.22668e-20 $X=8.935 $Y=1.16
c194 49 0 2.59669e-19 $X=6.63 $Y=1.16
c195 41 0 9.13617e-20 $X=8.985 $Y=1.19
c196 11 0 1.78045e-19 $X=6.63 $Y=0.995
r197 53 54 145.28 $w=1.7e-07 $l=1.7e-07 $layer=licon1_POLY $count=1 $X=8.935
+ $Y=1.16 $X2=8.935 $Y2=1.16
r198 48 49 9.61737 $w=3.3e-07 $l=5.5e-08 $layer=POLY_cond $X=6.575 $Y=1.16
+ $X2=6.63 $Y2=1.16
r199 45 48 41.0924 $w=3.3e-07 $l=2.35e-07 $layer=POLY_cond $X=6.34 $Y=1.16
+ $X2=6.575 $Y2=1.16
r200 41 54 9.3 $w=1.7e-07 $l=1.7e-07 $layer=mcon $count=1 $X=8.985 $Y=1.19
+ $X2=8.985 $Y2=1.19
r201 39 45 145.28 $w=1.7e-07 $l=1.7e-07 $layer=licon1_POLY $count=1 $X=6.34
+ $Y=1.16 $X2=6.34 $Y2=1.16
r202 38 39 9.3 $w=1.7e-07 $l=1.7e-07 $layer=mcon $count=1 $X=6.225 $Y=1.19
+ $X2=6.225 $Y2=1.19
r203 35 62 8.52653 $w=4.03e-07 $l=1.6e-07 $layer=LI1_cond $X=2.187 $Y=1.19
+ $X2=2.187 $Y2=1.35
r204 34 35 9.3 $w=1.7e-07 $l=1.7e-07 $layer=mcon $count=1 $X=2.07 $Y=1.19
+ $X2=2.07 $Y2=1.19
r205 32 38 0.115467 $w=2.3e-07 $l=1.45e-07 $layer=MET1_cond $X=6.37 $Y=1.19
+ $X2=6.225 $Y2=1.19
r206 31 41 0.115467 $w=2.3e-07 $l=1.45e-07 $layer=MET1_cond $X=8.84 $Y=1.19
+ $X2=8.985 $Y2=1.19
r207 31 32 3.05692 $w=1.4e-07 $l=2.47e-06 $layer=MET1_cond $X=8.84 $Y=1.19
+ $X2=6.37 $Y2=1.19
r208 30 34 0.115467 $w=2.3e-07 $l=1.45e-07 $layer=MET1_cond $X=2.215 $Y=1.19
+ $X2=2.07 $Y2=1.19
r209 29 38 0.115467 $w=2.3e-07 $l=1.45e-07 $layer=MET1_cond $X=6.08 $Y=1.19
+ $X2=6.225 $Y2=1.19
r210 29 30 4.78341 $w=1.4e-07 $l=3.865e-06 $layer=MET1_cond $X=6.08 $Y=1.19
+ $X2=2.215 $Y2=1.19
r211 25 62 17.615 $w=1.68e-07 $l=2.7e-07 $layer=LI1_cond $X=2.305 $Y=1.62
+ $X2=2.305 $Y2=1.35
r212 22 35 1.19513 $w=4.03e-07 $l=4.2e-08 $layer=LI1_cond $X=2.187 $Y=1.148
+ $X2=2.187 $Y2=1.19
r213 21 28 3.89425 $w=4.05e-07 $l=1.17e-07 $layer=LI1_cond $X=2.187 $Y=0.877
+ $X2=2.187 $Y2=0.76
r214 21 22 7.71141 $w=4.03e-07 $l=2.71e-07 $layer=LI1_cond $X=2.187 $Y=0.877
+ $X2=2.187 $Y2=1.148
r215 19 53 343.553 $w=1.5e-07 $l=6.7e-07 $layer=POLY_cond $X=8.935 $Y=1.995
+ $X2=8.935 $Y2=1.325
r216 14 53 63.3216 $w=2.55e-07 $l=4.45331e-07 $layer=POLY_cond $X=8.6 $Y=0.96
+ $X2=8.935 $Y2=1.217
r217 14 16 126.927 $w=1.5e-07 $l=3.95e-07 $layer=POLY_cond $X=8.6 $Y=0.96
+ $X2=8.6 $Y2=0.565
r218 11 49 21.2229 $w=1.5e-07 $l=1.65e-07 $layer=POLY_cond $X=6.63 $Y=0.995
+ $X2=6.63 $Y2=1.16
r219 11 13 138.173 $w=1.5e-07 $l=4.3e-07 $layer=POLY_cond $X=6.63 $Y=0.995
+ $X2=6.63 $Y2=0.565
r220 7 48 21.2229 $w=1.5e-07 $l=1.65e-07 $layer=POLY_cond $X=6.575 $Y=1.325
+ $X2=6.575 $Y2=1.16
r221 7 9 297.404 $w=1.5e-07 $l=5.8e-07 $layer=POLY_cond $X=6.575 $Y=1.325
+ $X2=6.575 $Y2=1.905
r222 2 25 600 $w=1.7e-07 $l=1.90919e-07 $layer=licon1_PDIFF $count=1 $X=2.17
+ $Y=1.485 $X2=2.305 $Y2=1.62
r223 1 28 182 $w=1.7e-07 $l=5.78576e-07 $layer=licon1_NDIFF $count=1 $X=2.17
+ $Y=0.245 $X2=2.305 $Y2=0.76
.ends

.subckt PM_SKY130_FD_SC_HD__FAHCIN_1%A_721_47# 1 2 9 11 13 16 17 19 21 23 25 26
+ 32 33 34 37 40 41 42 44 45 46 48 51 56 59
c190 51 0 9.22668e-20 $X=7.95 $Y=1.16
c191 32 0 5.53651e-20 $X=3.795 $Y=1.99
c192 17 0 2.15715e-19 $X=8.44 $Y=1.425
c193 9 0 1.73441e-19 $X=6.995 $Y=1.905
r194 58 59 7.68295 $w=2.53e-07 $l=1.7e-07 $layer=LI1_cond $X=7.907 $Y=1.55
+ $X2=7.907 $Y2=1.72
r195 54 56 12.3957 $w=1.68e-07 $l=1.9e-07 $layer=LI1_cond $X=3.795 $Y=1.235
+ $X2=3.985 $Y2=1.235
r196 51 58 25.4438 $w=1.68e-07 $l=3.9e-07 $layer=LI1_cond $X=7.95 $Y=1.16
+ $X2=7.95 $Y2=1.55
r197 51 52 145.28 $w=1.7e-07 $l=1.7e-07 $layer=licon1_POLY $count=1 $X=7.95
+ $Y=1.16 $X2=7.95 $Y2=1.16
r198 48 59 37.5134 $w=1.68e-07 $l=5.75e-07 $layer=LI1_cond $X=7.865 $Y=2.295
+ $X2=7.865 $Y2=1.72
r199 45 48 6.81649 $w=1.7e-07 $l=1.20208e-07 $layer=LI1_cond $X=7.78 $Y=2.38
+ $X2=7.865 $Y2=2.295
r200 45 46 116.455 $w=1.68e-07 $l=1.785e-06 $layer=LI1_cond $X=7.78 $Y=2.38
+ $X2=5.995 $Y2=2.38
r201 44 46 6.81649 $w=1.7e-07 $l=1.20208e-07 $layer=LI1_cond $X=5.91 $Y=2.295
+ $X2=5.995 $Y2=2.38
r202 43 44 15.0053 $w=1.68e-07 $l=2.3e-07 $layer=LI1_cond $X=5.91 $Y=2.065
+ $X2=5.91 $Y2=2.295
r203 41 43 6.81649 $w=1.7e-07 $l=1.20208e-07 $layer=LI1_cond $X=5.825 $Y=1.98
+ $X2=5.91 $Y2=2.065
r204 41 42 49.5829 $w=1.68e-07 $l=7.6e-07 $layer=LI1_cond $X=5.825 $Y=1.98
+ $X2=5.065 $Y2=1.98
r205 39 42 7.14316 $w=1.7e-07 $l=1.62019e-07 $layer=LI1_cond $X=4.94 $Y=2.065
+ $X2=5.065 $Y2=1.98
r206 39 40 10.372 $w=2.48e-07 $l=2.25e-07 $layer=LI1_cond $X=4.94 $Y=2.065
+ $X2=4.94 $Y2=2.29
r207 35 56 0.716491 $w=1.7e-07 $l=8.5e-08 $layer=LI1_cond $X=3.985 $Y=1.15
+ $X2=3.985 $Y2=1.235
r208 35 37 25.4438 $w=1.68e-07 $l=3.9e-07 $layer=LI1_cond $X=3.985 $Y=1.15
+ $X2=3.985 $Y2=0.76
r209 33 40 7.14316 $w=1.7e-07 $l=1.62019e-07 $layer=LI1_cond $X=4.815 $Y=2.375
+ $X2=4.94 $Y2=2.29
r210 33 34 61 $w=1.68e-07 $l=9.35e-07 $layer=LI1_cond $X=4.815 $Y=2.375 $X2=3.88
+ $Y2=2.375
r211 30 34 6.81649 $w=1.7e-07 $l=1.20208e-07 $layer=LI1_cond $X=3.795 $Y=2.29
+ $X2=3.88 $Y2=2.375
r212 30 32 19.5722 $w=1.68e-07 $l=3e-07 $layer=LI1_cond $X=3.795 $Y=2.29
+ $X2=3.795 $Y2=1.99
r213 29 54 0.716491 $w=1.7e-07 $l=8.5e-08 $layer=LI1_cond $X=3.795 $Y=1.32
+ $X2=3.795 $Y2=1.235
r214 29 32 43.7112 $w=1.68e-07 $l=6.7e-07 $layer=LI1_cond $X=3.795 $Y=1.32
+ $X2=3.795 $Y2=1.99
r215 25 52 7.86876 $w=3.3e-07 $l=4.5e-08 $layer=POLY_cond $X=7.995 $Y=1.16
+ $X2=7.95 $Y2=1.16
r216 25 27 68.5835 $w=2.4e-07 $l=2.65e-07 $layer=POLY_cond $X=8.115 $Y=1.16
+ $X2=8.115 $Y2=1.425
r217 25 26 51.39 $w=2.4e-07 $l=1.65e-07 $layer=POLY_cond $X=8.115 $Y=1.16
+ $X2=8.115 $Y2=0.995
r218 22 52 143.386 $w=3.3e-07 $l=8.2e-07 $layer=POLY_cond $X=7.13 $Y=1.16
+ $X2=7.95 $Y2=1.16
r219 22 23 5.03009 $w=3.3e-07 $l=1.05e-07 $layer=POLY_cond $X=7.13 $Y=1.16
+ $X2=7.025 $Y2=1.16
r220 19 21 159.06 $w=1.5e-07 $l=4.95e-07 $layer=POLY_cond $X=8.515 $Y=1.5
+ $X2=8.515 $Y2=1.995
r221 18 27 13.7767 $w=1.5e-07 $l=1.2e-07 $layer=POLY_cond $X=8.235 $Y=1.425
+ $X2=8.115 $Y2=1.425
r222 17 19 26.9307 $w=1.5e-07 $l=1.06066e-07 $layer=POLY_cond $X=8.44 $Y=1.425
+ $X2=8.515 $Y2=1.5
r223 17 18 105.117 $w=1.5e-07 $l=2.05e-07 $layer=POLY_cond $X=8.44 $Y=1.425
+ $X2=8.235 $Y2=1.425
r224 16 26 138.173 $w=1.5e-07 $l=4.3e-07 $layer=POLY_cond $X=8.16 $Y=0.565
+ $X2=8.16 $Y2=0.995
r225 11 23 37.0704 $w=1.5e-07 $l=1.79374e-07 $layer=POLY_cond $X=7.055 $Y=0.995
+ $X2=7.025 $Y2=1.16
r226 11 13 138.173 $w=1.5e-07 $l=4.3e-07 $layer=POLY_cond $X=7.055 $Y=0.995
+ $X2=7.055 $Y2=0.565
r227 7 23 37.0704 $w=1.5e-07 $l=1.79374e-07 $layer=POLY_cond $X=6.995 $Y=1.325
+ $X2=7.025 $Y2=1.16
r228 7 9 297.404 $w=1.5e-07 $l=5.8e-07 $layer=POLY_cond $X=6.995 $Y=1.325
+ $X2=6.995 $Y2=1.905
r229 2 32 600 $w=1.7e-07 $l=5.68507e-07 $layer=licon1_PDIFF $count=1 $X=3.66
+ $Y=1.485 $X2=3.795 $Y2=1.99
r230 1 37 182 $w=1.7e-07 $l=6.89293e-07 $layer=licon1_NDIFF $count=1 $X=3.605
+ $Y=0.235 $X2=3.985 $Y2=0.76
.ends

.subckt PM_SKY130_FD_SC_HD__FAHCIN_1%A_1636_315# 1 2 3 4 15 18 22 24 25 26 31 33
+ 34 36 40 42 44 46 50 55
c124 50 0 2.4093e-19 $X=10.065 $Y=1.16
c125 22 0 1.01924e-19 $X=8.305 $Y=2.12
r126 52 53 8.54777 $w=4.71e-07 $l=3.3e-07 $layer=LI1_cond $X=10.617 $Y=1.63
+ $X2=10.617 $Y2=1.96
r127 50 55 48.4159 $w=2.7e-07 $l=1.65e-07 $layer=POLY_cond $X=10.065 $Y=1.16
+ $X2=10.065 $Y2=0.995
r128 49 52 12.1741 $w=4.71e-07 $l=7.51095e-07 $layer=LI1_cond $X=10.065 $Y=1.16
+ $X2=10.617 $Y2=1.63
r129 49 50 145.28 $w=1.7e-07 $l=1.7e-07 $layer=licon1_POLY $count=1 $X=10.065
+ $Y=1.16 $X2=10.065 $Y2=1.16
r130 42 53 2.5146 $w=4.71e-07 $l=1.21219e-07 $layer=LI1_cond $X=10.71 $Y=2.025
+ $X2=10.617 $Y2=1.96
r131 42 44 9.38418 $w=3.48e-07 $l=2.85e-07 $layer=LI1_cond $X=10.71 $Y=2.025
+ $X2=10.71 $Y2=2.31
r132 38 40 10.1597 $w=3.78e-07 $l=3.35e-07 $layer=LI1_cond $X=10.72 $Y=0.735
+ $X2=10.72 $Y2=0.4
r133 37 49 8.80679 $w=4.71e-07 $l=4.60977e-07 $layer=LI1_cond $X=10.35 $Y=0.82
+ $X2=10.065 $Y2=1.16
r134 36 38 8.19669 $w=1.7e-07 $l=2.28583e-07 $layer=LI1_cond $X=10.53 $Y=0.82
+ $X2=10.72 $Y2=0.735
r135 36 37 11.7433 $w=1.68e-07 $l=1.8e-07 $layer=LI1_cond $X=10.53 $Y=0.82
+ $X2=10.35 $Y2=0.82
r136 35 46 1.34256 $w=1.7e-07 $l=8.5e-08 $layer=LI1_cond $X=9.41 $Y=1.96
+ $X2=9.325 $Y2=1.96
r137 34 53 6.78321 $w=1.7e-07 $l=5.62e-07 $layer=LI1_cond $X=10.055 $Y=1.96
+ $X2=10.617 $Y2=1.96
r138 34 35 42.0802 $w=1.68e-07 $l=6.45e-07 $layer=LI1_cond $X=10.055 $Y=1.96
+ $X2=9.41 $Y2=1.96
r139 32 46 5.16603 $w=1.7e-07 $l=8.5e-08 $layer=LI1_cond $X=9.325 $Y=2.045
+ $X2=9.325 $Y2=1.96
r140 32 33 16.3102 $w=1.68e-07 $l=2.5e-07 $layer=LI1_cond $X=9.325 $Y=2.045
+ $X2=9.325 $Y2=2.295
r141 31 46 5.16603 $w=1.7e-07 $l=8.5e-08 $layer=LI1_cond $X=9.325 $Y=1.875
+ $X2=9.325 $Y2=1.96
r142 30 31 72.4171 $w=1.68e-07 $l=1.11e-06 $layer=LI1_cond $X=9.325 $Y=0.765
+ $X2=9.325 $Y2=1.875
r143 26 30 6.81649 $w=1.7e-07 $l=1.20208e-07 $layer=LI1_cond $X=9.24 $Y=0.68
+ $X2=9.325 $Y2=0.765
r144 26 28 0.652406 $w=1.68e-07 $l=1e-08 $layer=LI1_cond $X=9.24 $Y=0.68
+ $X2=9.23 $Y2=0.68
r145 24 33 6.81649 $w=1.7e-07 $l=1.20208e-07 $layer=LI1_cond $X=9.24 $Y=2.38
+ $X2=9.325 $Y2=2.295
r146 24 25 55.4545 $w=1.68e-07 $l=8.5e-07 $layer=LI1_cond $X=9.24 $Y=2.38
+ $X2=8.39 $Y2=2.38
r147 20 25 6.81649 $w=1.7e-07 $l=1.20208e-07 $layer=LI1_cond $X=8.305 $Y=2.295
+ $X2=8.39 $Y2=2.38
r148 20 22 11.4171 $w=1.68e-07 $l=1.75e-07 $layer=LI1_cond $X=8.305 $Y=2.295
+ $X2=8.305 $Y2=2.12
r149 16 50 48.4159 $w=2.7e-07 $l=1.65e-07 $layer=POLY_cond $X=10.065 $Y=1.325
+ $X2=10.065 $Y2=1.16
r150 16 18 338.426 $w=1.5e-07 $l=6.6e-07 $layer=POLY_cond $X=10.065 $Y=1.325
+ $X2=10.065 $Y2=1.985
r151 15 55 138.173 $w=1.5e-07 $l=4.3e-07 $layer=POLY_cond $X=10.035 $Y=0.565
+ $X2=10.035 $Y2=0.995
r152 4 52 400 $w=1.7e-07 $l=2.03286e-07 $layer=licon1_PDIFF $count=1 $X=10.56
+ $Y=1.485 $X2=10.7 $Y2=1.63
r153 4 44 400 $w=1.7e-07 $l=8.92258e-07 $layer=licon1_PDIFF $count=1 $X=10.56
+ $Y=1.485 $X2=10.7 $Y2=2.31
r154 3 22 600 $w=1.7e-07 $l=6.04276e-07 $layer=licon1_PDIFF $count=1 $X=8.18
+ $Y=1.575 $X2=8.305 $Y2=2.12
r155 2 40 91 $w=1.7e-07 $l=2.22486e-07 $layer=licon1_NDIFF $count=2 $X=10.585
+ $Y=0.235 $X2=10.72 $Y2=0.4
r156 1 28 91 $w=1.7e-07 $l=7.41249e-07 $layer=licon1_NDIFF $count=2 $X=8.675
+ $Y=0.245 $X2=9.23 $Y2=0.68
.ends

.subckt PM_SKY130_FD_SC_HD__FAHCIN_1%CIN 3 5 7 8 10 13 16 17 18 19
c66 19 0 1.5713e-19 $X=10.825 $Y=1.19
c67 5 0 8.32754e-20 $X=10.51 $Y=0.995
c68 3 0 1.46815e-19 $X=10.485 $Y=1.985
r69 19 22 145.28 $w=1.7e-07 $l=1.7e-07 $layer=licon1_POLY $count=1 $X=10.765
+ $Y=1.16 $X2=10.765 $Y2=1.16
r70 17 22 106.665 $w=3.3e-07 $l=6.1e-07 $layer=POLY_cond $X=11.375 $Y=1.16
+ $X2=10.765 $Y2=1.16
r71 17 18 5.03009 $w=3.3e-07 $l=7.5e-08 $layer=POLY_cond $X=11.375 $Y=1.16
+ $X2=11.45 $Y2=1.16
r72 15 22 31.475 $w=3.3e-07 $l=1.8e-07 $layer=POLY_cond $X=10.585 $Y=1.16
+ $X2=10.765 $Y2=1.16
r73 15 16 5.03009 $w=3.3e-07 $l=8.8e-08 $layer=POLY_cond $X=10.585 $Y=1.16
+ $X2=10.497 $Y2=1.16
r74 11 18 37.0704 $w=1.5e-07 $l=1.65e-07 $layer=POLY_cond $X=11.45 $Y=1.325
+ $X2=11.45 $Y2=1.16
r75 11 13 338.426 $w=1.5e-07 $l=6.6e-07 $layer=POLY_cond $X=11.45 $Y=1.325
+ $X2=11.45 $Y2=1.985
r76 8 18 37.0704 $w=1.5e-07 $l=1.65e-07 $layer=POLY_cond $X=11.45 $Y=0.995
+ $X2=11.45 $Y2=1.16
r77 8 10 138.173 $w=1.5e-07 $l=4.3e-07 $layer=POLY_cond $X=11.45 $Y=0.995
+ $X2=11.45 $Y2=0.565
r78 5 16 37.0704 $w=1.5e-07 $l=1.71377e-07 $layer=POLY_cond $X=10.51 $Y=0.995
+ $X2=10.497 $Y2=1.16
r79 5 7 139.78 $w=1.5e-07 $l=4.35e-07 $layer=POLY_cond $X=10.51 $Y=0.995
+ $X2=10.51 $Y2=0.56
r80 1 16 37.0704 $w=1.5e-07 $l=1.70895e-07 $layer=POLY_cond $X=10.485 $Y=1.325
+ $X2=10.497 $Y2=1.16
r81 1 3 338.426 $w=1.5e-07 $l=6.6e-07 $layer=POLY_cond $X=10.485 $Y=1.325
+ $X2=10.485 $Y2=1.985
.ends

.subckt PM_SKY130_FD_SC_HD__FAHCIN_1%A_1647_49# 1 2 9 13 15 19 22 23 29 33 34 35
+ 42
c106 42 0 9.13617e-20 $X=8.725 $Y=1.7
c107 33 0 1.52424e-19 $X=11.87 $Y=1.16
c108 23 0 2.20632e-19 $X=8.67 $Y=1.53
r109 33 35 48.4159 $w=2.7e-07 $l=1.65e-07 $layer=POLY_cond $X=11.87 $Y=1.16
+ $X2=11.87 $Y2=0.995
r110 33 34 145.28 $w=1.7e-07 $l=1.7e-07 $layer=licon1_POLY $count=1 $X=11.87
+ $Y=1.16 $X2=11.87 $Y2=1.16
r111 30 34 13.755 $w=3.08e-07 $l=3.7e-07 $layer=LI1_cond $X=11.8 $Y=1.53
+ $X2=11.8 $Y2=1.16
r112 29 30 9.3 $w=1.7e-07 $l=1.7e-07 $layer=mcon $count=1 $X=11.765 $Y=1.53
+ $X2=11.765 $Y2=1.53
r113 26 42 10.4686 $w=3.03e-07 $l=2.6e-07 $layer=LI1_cond $X=8.465 $Y=1.615
+ $X2=8.725 $Y2=1.615
r114 25 26 9.3 $w=1.7e-07 $l=1.7e-07 $layer=mcon $count=1 $X=8.525 $Y=1.53
+ $X2=8.525 $Y2=1.53
r115 23 25 0.115467 $w=2.3e-07 $l=1.45e-07 $layer=MET1_cond $X=8.67 $Y=1.53
+ $X2=8.525 $Y2=1.53
r116 22 29 0.115467 $w=2.3e-07 $l=1.45e-07 $layer=MET1_cond $X=11.62 $Y=1.53
+ $X2=11.765 $Y2=1.53
r117 22 23 3.65098 $w=1.4e-07 $l=2.95e-06 $layer=MET1_cond $X=11.62 $Y=1.53
+ $X2=8.67 $Y2=1.53
r118 19 21 8.52828 $w=2.48e-07 $l=1.65e-07 $layer=LI1_cond $X=8.43 $Y=0.76
+ $X2=8.43 $Y2=0.925
r119 15 26 3.784 $w=1.8e-07 $l=1.7e-07 $layer=LI1_cond $X=8.465 $Y=1.445
+ $X2=8.465 $Y2=1.615
r120 15 21 32.0404 $w=1.78e-07 $l=5.2e-07 $layer=LI1_cond $X=8.465 $Y=1.445
+ $X2=8.465 $Y2=0.925
r121 13 35 139.78 $w=1.5e-07 $l=4.35e-07 $layer=POLY_cond $X=11.925 $Y=0.56
+ $X2=11.925 $Y2=0.995
r122 7 33 48.4159 $w=2.7e-07 $l=1.65e-07 $layer=POLY_cond $X=11.87 $Y=1.325
+ $X2=11.87 $Y2=1.16
r123 7 9 338.426 $w=1.5e-07 $l=6.6e-07 $layer=POLY_cond $X=11.87 $Y=1.325
+ $X2=11.87 $Y2=1.985
r124 2 42 300 $w=1.7e-07 $l=1.8735e-07 $layer=licon1_PDIFF $count=2 $X=8.59
+ $Y=1.575 $X2=8.725 $Y2=1.7
r125 1 19 182 $w=1.7e-07 $l=5.8741e-07 $layer=licon1_NDIFF $count=1 $X=8.235
+ $Y=0.245 $X2=8.39 $Y2=0.76
.ends

.subckt PM_SKY130_FD_SC_HD__FAHCIN_1%A_27_47# 1 2 3 4 5 6 23 27 29 32 34 35 37
+ 44 46 48 50 52 53 58 59 60 63 65 66
c167 65 0 4.5918e-20 $X=4.405 $Y=0.39
c168 52 0 1.3431e-19 $X=0.265 $Y=1.63
c169 50 0 5.07203e-20 $X=0.257 $Y=0.805
c170 2 0 1.85123e-19 $X=2.595 $Y=0.245
r171 65 66 9.26861 $w=2.18e-07 $l=1.65e-07 $layer=LI1_cond $X=4.405 $Y=0.365
+ $X2=4.24 $Y2=0.365
r172 57 59 8.79328 $w=2.48e-07 $l=1.65e-07 $layer=LI1_cond $X=1.805 $Y=2.34
+ $X2=1.97 $Y2=2.34
r173 57 58 5.33595 $w=2.48e-07 $l=9e-08 $layer=LI1_cond $X=1.805 $Y=2.34
+ $X2=1.715 $Y2=2.34
r174 54 55 2.75937 $w=3.53e-07 $l=8.5e-08 $layer=LI1_cond $X=0.262 $Y=1.925
+ $X2=0.262 $Y2=2.01
r175 52 54 9.57664 $w=3.53e-07 $l=2.95e-07 $layer=LI1_cond $X=0.262 $Y=1.63
+ $X2=0.262 $Y2=1.925
r176 52 53 7.36284 $w=3.53e-07 $l=1.3e-07 $layer=LI1_cond $X=0.262 $Y=1.63
+ $X2=0.262 $Y2=1.5
r177 50 53 45.3422 $w=1.68e-07 $l=6.95e-07 $layer=LI1_cond $X=0.17 $Y=0.805
+ $X2=0.17 $Y2=1.5
r178 49 50 5.14454 $w=3.28e-07 $l=7e-08 $layer=LI1_cond $X=0.257 $Y=0.735
+ $X2=0.257 $Y2=0.805
r179 48 66 33.2727 $w=1.68e-07 $l=5.1e-07 $layer=LI1_cond $X=3.73 $Y=0.34
+ $X2=4.24 $Y2=0.34
r180 46 60 18 $w=1.83e-07 $l=2.7e-07 $layer=LI1_cond $X=3.645 $Y=0.79 $X2=3.375
+ $Y2=0.79
r181 45 48 6.81649 $w=1.7e-07 $l=1.20208e-07 $layer=LI1_cond $X=3.645 $Y=0.425
+ $X2=3.73 $Y2=0.34
r182 45 46 21.5294 $w=1.68e-07 $l=3.3e-07 $layer=LI1_cond $X=3.645 $Y=0.425
+ $X2=3.645 $Y2=0.755
r183 42 63 14.7424 $w=2.41e-07 $l=2.72489e-07 $layer=LI1_cond $X=3.375 $Y=2.11
+ $X2=3.38 $Y2=2.38
r184 42 44 31.9679 $w=1.68e-07 $l=4.9e-07 $layer=LI1_cond $X=3.375 $Y=2.11
+ $X2=3.375 $Y2=1.62
r185 41 60 1.16186 $w=1.7e-07 $l=1.35e-07 $layer=LI1_cond $X=3.375 $Y=0.925
+ $X2=3.375 $Y2=0.79
r186 41 44 45.3422 $w=1.68e-07 $l=6.95e-07 $layer=LI1_cond $X=3.375 $Y=0.925
+ $X2=3.375 $Y2=1.62
r187 37 60 24.0793 $w=2.5e-07 $l=4.79974e-07 $layer=LI1_cond $X=2.9 $Y=0.78
+ $X2=3.375 $Y2=0.79
r188 37 39 5.30124 $w=2.48e-07 $l=1.15e-07 $layer=LI1_cond $X=2.9 $Y=0.78
+ $X2=2.785 $Y2=0.78
r189 35 63 2.78154 $w=1.7e-07 $l=1.35e-07 $layer=LI1_cond $X=3.245 $Y=2.38
+ $X2=3.38 $Y2=2.38
r190 35 59 83.1818 $w=1.68e-07 $l=1.275e-06 $layer=LI1_cond $X=3.245 $Y=2.38
+ $X2=1.97 $Y2=2.38
r191 34 58 39.4706 $w=1.68e-07 $l=6.05e-07 $layer=LI1_cond $X=1.11 $Y=2.3
+ $X2=1.715 $Y2=2.3
r192 32 34 6.81649 $w=1.7e-07 $l=1.20208e-07 $layer=LI1_cond $X=1.025 $Y=2.215
+ $X2=1.11 $Y2=2.3
r193 31 32 13.3743 $w=1.68e-07 $l=2.05e-07 $layer=LI1_cond $X=1.025 $Y=2.01
+ $X2=1.025 $Y2=2.215
r194 30 54 5.0588 $w=1.7e-07 $l=1.78e-07 $layer=LI1_cond $X=0.44 $Y=1.925
+ $X2=0.262 $Y2=1.925
r195 29 31 6.81649 $w=1.7e-07 $l=1.20208e-07 $layer=LI1_cond $X=0.94 $Y=1.925
+ $X2=1.025 $Y2=2.01
r196 29 30 32.6203 $w=1.68e-07 $l=5e-07 $layer=LI1_cond $X=0.94 $Y=1.925
+ $X2=0.44 $Y2=1.925
r197 27 49 12.3975 $w=3.28e-07 $l=3.55e-07 $layer=LI1_cond $X=0.265 $Y=0.38
+ $X2=0.265 $Y2=0.735
r198 23 55 10.0212 $w=3.43e-07 $l=3e-07 $layer=LI1_cond $X=0.257 $Y=2.31
+ $X2=0.257 $Y2=2.01
r199 6 63 600 $w=1.7e-07 $l=9.55458e-07 $layer=licon1_PDIFF $count=1 $X=3.165
+ $Y=1.485 $X2=3.29 $Y2=2.38
r200 6 44 600 $w=1.7e-07 $l=2.69165e-07 $layer=licon1_PDIFF $count=1 $X=3.165
+ $Y=1.485 $X2=3.375 $Y2=1.62
r201 5 57 600 $w=1.7e-07 $l=2.05061e-07 $layer=licon1_PDIFF $count=1 $X=1.66
+ $Y=2.155 $X2=1.805 $Y2=2.3
r202 4 52 400 $w=1.7e-07 $l=1.99687e-07 $layer=licon1_PDIFF $count=1 $X=0.135
+ $Y=1.485 $X2=0.265 $Y2=1.63
r203 4 23 400 $w=1.7e-07 $l=8.87623e-07 $layer=licon1_PDIFF $count=1 $X=0.135
+ $Y=1.485 $X2=0.265 $Y2=2.31
r204 3 65 182 $w=1.7e-07 $l=2.01494e-07 $layer=licon1_NDIFF $count=1 $X=4.27
+ $Y=0.245 $X2=4.405 $Y2=0.39
r205 2 39 182 $w=1.7e-07 $l=5.82301e-07 $layer=licon1_NDIFF $count=1 $X=2.595
+ $Y=0.245 $X2=2.785 $Y2=0.74
r206 1 27 91 $w=1.7e-07 $l=1.99687e-07 $layer=licon1_NDIFF $count=2 $X=0.135
+ $Y=0.235 $X2=0.265 $Y2=0.38
.ends

.subckt PM_SKY130_FD_SC_HD__FAHCIN_1%VPWR 1 2 3 4 15 17 21 25 29 31 33 38 46 53
+ 54 57 60 63 66
c128 33 0 1.3431e-19 $X=0.6 $Y=2.72
c129 29 0 1.52424e-19 $X=11.66 $Y=1.95
r130 66 67 9.3 $w=1.7e-07 $l=1.7e-07 $layer=mcon $count=1 $X=11.73 $Y=2.72
+ $X2=11.73 $Y2=2.72
r131 63 64 6.2 $w=1.7e-07 $l=2.55e-07 $layer=mcon $count=1 $X=10.35 $Y=2.72
+ $X2=10.35 $Y2=2.72
r132 60 61 1.69091 $w=1.7e-07 $l=9.35e-07 $layer=mcon $count=5 $X=5.29 $Y=2.72
+ $X2=5.29 $Y2=2.72
r133 58 61 1.30889 $w=4.8e-07 $l=4.6e-06 $layer=MET1_cond $X=0.69 $Y=2.72
+ $X2=5.29 $Y2=2.72
r134 57 58 1.69091 $w=1.7e-07 $l=9.35e-07 $layer=mcon $count=5 $X=0.69 $Y=2.72
+ $X2=0.69 $Y2=2.72
r135 54 67 0.130889 $w=4.8e-07 $l=4.6e-07 $layer=MET1_cond $X=12.19 $Y=2.72
+ $X2=11.73 $Y2=2.72
r136 53 54 9.3 $w=1.7e-07 $l=1.7e-07 $layer=mcon $count=1 $X=12.19 $Y=2.72
+ $X2=12.19 $Y2=2.72
r137 51 66 7.13466 $w=1.7e-07 $l=1.28e-07 $layer=LI1_cond $X=11.83 $Y=2.72
+ $X2=11.702 $Y2=2.72
r138 51 53 23.4866 $w=1.68e-07 $l=3.6e-07 $layer=LI1_cond $X=11.83 $Y=2.72
+ $X2=12.19 $Y2=2.72