* File: sky130_fd_sc_hd__lpflow_isobufsrckapwr_16.spice.pex
* Created: Thu Aug 27 14:26:06 2020
* Program "Calibre xRC"
* Version "v2018.4_34.26"
* Nominal Temperature: 27C
* Circuit Temperature: 27C
* 
.subckt PM_SKY130_FD_SC_HD__LPFLOW_ISOBUFSRCKAPWR_16%A 1 3 6 8 12 14
c28 12 0 1.86625e-19 $X=0.45 $Y=1.16
r29 11 14 36.7209 $w=3.3e-07 $l=2.1e-07 $layer=POLY_cond $X=0.45 $Y=1.16
+ $X2=0.66 $Y2=1.16
r30 11 12 145.28 $w=1.7e-07 $l=1.7e-07 $layer=licon1_POLY $count=1 $X=0.45
+ $Y=1.16 $X2=0.45 $Y2=1.16
r31 8 12 5.40943 $w=2.43e-07 $l=1.15e-07 $layer=LI1_cond $X=0.335 $Y=1.197
+ $X2=0.45 $Y2=1.197
r32 4 14 21.2229 $w=1.5e-07 $l=1.65e-07 $layer=POLY_cond $X=0.66 $Y=1.325
+ $X2=0.66 $Y2=1.16
r33 4 6 338.426 $w=1.5e-07 $l=6.6e-07 $layer=POLY_cond $X=0.66 $Y=1.325 $X2=0.66
+ $Y2=1.985
r34 1 14 21.2229 $w=1.5e-07 $l=1.65e-07 $layer=POLY_cond $X=0.66 $Y=0.995
+ $X2=0.66 $Y2=1.16
r35 1 3 139.78 $w=1.5e-07 $l=4.35e-07 $layer=POLY_cond $X=0.66 $Y=0.995 $X2=0.66
+ $Y2=0.56
.ends

.subckt PM_SKY130_FD_SC_HD__LPFLOW_ISOBUFSRCKAPWR_16%A_147_47# 1 2 7 9 12 14 16
+ 19 21 23 26 28 30 33 37 41 44 52 55 57 58 59 60 67
c125 60 0 1.86625e-19 $X=1.555 $Y=1.16
c126 58 0 1.68547e-19 $X=0.87 $Y=1.575
c127 26 0 7.39456e-20 $X=2.47 $Y=1.985
c128 14 0 1.6807e-19 $X=2.05 $Y=0.995
r129 66 67 73.4417 $w=3.3e-07 $l=4.2e-07 $layer=POLY_cond $X=2.47 $Y=1.16
+ $X2=2.89 $Y2=1.16
r130 63 64 73.4417 $w=3.3e-07 $l=4.2e-07 $layer=POLY_cond $X=1.63 $Y=1.16
+ $X2=2.05 $Y2=1.16
r131 60 63 13.1146 $w=3.3e-07 $l=7.5e-08 $layer=POLY_cond $X=1.555 $Y=1.16
+ $X2=1.63 $Y2=1.16
r132 57 58 3.67308 $w=3.28e-07 $l=8.5e-08 $layer=LI1_cond $X=0.87 $Y=1.66
+ $X2=0.87 $Y2=1.575
r133 53 66 64.6987 $w=3.3e-07 $l=3.7e-07 $layer=POLY_cond $X=2.1 $Y=1.16
+ $X2=2.47 $Y2=1.16
r134 53 64 8.74306 $w=3.3e-07 $l=5e-08 $layer=POLY_cond $X=2.1 $Y=1.16 $X2=2.05
+ $Y2=1.16
r135 52 53 72.64 $w=1.7e-07 $l=3.4e-07 $layer=licon1_POLY $count=2 $X=2.1
+ $Y=1.16 $X2=2.1 $Y2=1.16
r136 50 60 83.0591 $w=3.3e-07 $l=4.75e-07 $layer=POLY_cond $X=1.08 $Y=1.16
+ $X2=1.555 $Y2=1.16
r137 49 52 56.5636 $w=1.98e-07 $l=1.02e-06 $layer=LI1_cond $X=1.08 $Y=1.175
+ $X2=2.1 $Y2=1.175
r138 49 50 72.64 $w=1.7e-07 $l=3.4e-07 $layer=licon1_POLY $count=2 $X=1.08
+ $Y=1.16 $X2=1.08 $Y2=1.16
r139 47 59 2.15711 $w=2e-07 $l=1.25e-07 $layer=LI1_cond $X=1.035 $Y=1.175
+ $X2=0.91 $Y2=1.175
r140 47 49 2.49545 $w=1.98e-07 $l=4.5e-08 $layer=LI1_cond $X=1.035 $Y=1.175
+ $X2=1.08 $Y2=1.175
r141 45 59 4.27425 $w=2.5e-07 $l=1e-07 $layer=LI1_cond $X=0.91 $Y=1.275 $X2=0.91
+ $Y2=1.175
r142 45 58 13.8293 $w=2.48e-07 $l=3e-07 $layer=LI1_cond $X=0.91 $Y=1.275
+ $X2=0.91 $Y2=1.575
r143 44 59 4.27425 $w=2.5e-07 $l=1e-07 $layer=LI1_cond $X=0.91 $Y=1.075 $X2=0.91
+ $Y2=1.175
r144 44 55 11.9854 $w=2.48e-07 $l=2.6e-07 $layer=LI1_cond $X=0.91 $Y=1.075
+ $X2=0.91 $Y2=0.815
r145 39 57 2.7938 $w=3.28e-07 $l=8e-08 $layer=LI1_cond $X=0.87 $Y=1.74 $X2=0.87
+ $Y2=1.66
r146 39 41 20.9535 $w=3.28e-07 $l=6e-07 $layer=LI1_cond $X=0.87 $Y=1.74 $X2=0.87
+ $Y2=2.34
r147 35 55 6.46688 $w=3.28e-07 $l=1.65e-07 $layer=LI1_cond $X=0.87 $Y=0.65
+ $X2=0.87 $Y2=0.815
r148 35 37 9.07985 $w=3.28e-07 $l=2.6e-07 $layer=LI1_cond $X=0.87 $Y=0.65
+ $X2=0.87 $Y2=0.39
r149 31 67 21.2229 $w=1.5e-07 $l=1.65e-07 $layer=POLY_cond $X=2.89 $Y=1.325
+ $X2=2.89 $Y2=1.16
r150 31 33 338.426 $w=1.5e-07 $l=6.6e-07 $layer=POLY_cond $X=2.89 $Y=1.325
+ $X2=2.89 $Y2=1.985
r151 28 67 21.2229 $w=1.5e-07 $l=1.65e-07 $layer=POLY_cond $X=2.89 $Y=0.995
+ $X2=2.89 $Y2=1.16
r152 28 30 139.78 $w=1.5e-07 $l=4.35e-07 $layer=POLY_cond $X=2.89 $Y=0.995
+ $X2=2.89 $Y2=0.56
r153 24 66 21.2229 $w=1.5e-07 $l=1.65e-07 $layer=POLY_cond $X=2.47 $Y=1.325
+ $X2=2.47 $Y2=1.16
r154 24 26 338.426 $w=1.5e-07 $l=6.6e-07 $layer=POLY_cond $X=2.47 $Y=1.325
+ $X2=2.47 $Y2=1.985
r155 21 66 21.2229 $w=1.5e-07 $l=1.65e-07 $layer=POLY_cond $X=2.47 $Y=0.995
+ $X2=2.47 $Y2=1.16
r156 21 23 139.78 $w=1.5e-07 $l=4.35e-07 $layer=POLY_cond $X=2.47 $Y=0.995
+ $X2=2.47 $Y2=0.56
r157 17 64 21.2229 $w=1.5e-07 $l=1.65e-07 $layer=POLY_cond $X=2.05 $Y=1.325
+ $X2=2.05 $Y2=1.16
r158 17 19 338.426 $w=1.5e-07 $l=6.6e-07 $layer=POLY_cond $X=2.05 $Y=1.325
+ $X2=2.05 $Y2=1.985
r159 14 64 21.2229 $w=1.5e-07 $l=1.65e-07 $layer=POLY_cond $X=2.05 $Y=0.995
+ $X2=2.05 $Y2=1.16
r160 14 16 139.78 $w=1.5e-07 $l=4.35e-07 $layer=POLY_cond $X=2.05 $Y=0.995
+ $X2=2.05 $Y2=0.56
r161 10 63 21.2229 $w=1.5e-07 $l=1.65e-07 $layer=POLY_cond $X=1.63 $Y=1.325
+ $X2=1.63 $Y2=1.16
r162 10 12 338.426 $w=1.5e-07 $l=6.6e-07 $layer=POLY_cond $X=1.63 $Y=1.325
+ $X2=1.63 $Y2=1.985
r163 7 63 21.2229 $w=1.5e-07 $l=1.65e-07 $layer=POLY_cond $X=1.63 $Y=0.995
+ $X2=1.63 $Y2=1.16
r164 7 9 139.78 $w=1.5e-07 $l=4.35e-07 $layer=POLY_cond $X=1.63 $Y=0.995
+ $X2=1.63 $Y2=0.56
r165 2 57 400 $w=1.7e-07 $l=2.32916e-07 $layer=licon1_PDIFF $count=1 $X=0.735
+ $Y=1.485 $X2=0.87 $Y2=1.66
r166 2 41 400 $w=1.7e-07 $l=9.20027e-07 $layer=licon1_PDIFF $count=1 $X=0.735
+ $Y=1.485 $X2=0.87 $Y2=2.34
r167 1 37 91 $w=1.7e-07 $l=2.12014e-07 $layer=licon1_NDIFF $count=2 $X=0.735
+ $Y=0.235 $X2=0.87 $Y2=0.39
.ends

.subckt PM_SKY130_FD_SC_HD__LPFLOW_ISOBUFSRCKAPWR_16%SLEEP 1 3 6 8 10 13 15 17
+ 20 22 24 27 29 40 41
r94 39 41 19.2347 $w=3.3e-07 $l=1.1e-07 $layer=POLY_cond $X=4.46 $Y=1.16
+ $X2=4.57 $Y2=1.16
r95 39 40 72.64 $w=1.7e-07 $l=3.4e-07 $layer=licon1_POLY $count=2 $X=4.46
+ $Y=1.16 $X2=4.46 $Y2=1.16
r96 37 39 54.207 $w=3.3e-07 $l=3.1e-07 $layer=POLY_cond $X=4.15 $Y=1.16 $X2=4.46
+ $Y2=1.16
r97 36 37 73.4417 $w=3.3e-07 $l=4.2e-07 $layer=POLY_cond $X=3.73 $Y=1.16
+ $X2=4.15 $Y2=1.16
r98 34 36 50.7098 $w=3.3e-07 $l=2.9e-07 $layer=POLY_cond $X=3.44 $Y=1.16
+ $X2=3.73 $Y2=1.16
r99 34 35 72.64 $w=1.7e-07 $l=3.4e-07 $layer=licon1_POLY $count=2 $X=3.44
+ $Y=1.16 $X2=3.44 $Y2=1.16
r100 31 34 22.732 $w=3.3e-07 $l=1.3e-07 $layer=POLY_cond $X=3.31 $Y=1.16
+ $X2=3.44 $Y2=1.16
r101 29 40 5.26818 $w=1.98e-07 $l=9.5e-08 $layer=LI1_cond $X=4.365 $Y=1.175
+ $X2=4.46 $Y2=1.175
r102 29 35 51.2955 $w=1.98e-07 $l=9.25e-07 $layer=LI1_cond $X=4.365 $Y=1.175
+ $X2=3.44 $Y2=1.175
r103 25 41 21.2229 $w=1.5e-07 $l=1.65e-07 $layer=POLY_cond $X=4.57 $Y=1.325
+ $X2=4.57 $Y2=1.16
r104 25 27 338.426 $w=1.5e-07 $l=6.6e-07 $layer=POLY_cond $X=4.57 $Y=1.325
+ $X2=4.57 $Y2=1.985
r105 22 41 21.2229 $w=1.5e-07 $l=1.65e-07 $layer=POLY_cond $X=4.57 $Y=0.995
+ $X2=4.57 $Y2=1.16
r106 22 24 139.78 $w=1.5e-07 $l=4.35e-07 $layer=POLY_cond $X=4.57 $Y=0.995
+ $X2=4.57 $Y2=0.56
r107 18 37 21.2229 $w=1.5e-07 $l=1.65e-07 $layer=POLY_cond $X=4.15 $Y=1.325
+ $X2=4.15 $Y2=1.16
r108 18 20 338.426 $w=1.5e-07 $l=6.6e-07 $layer=POLY_cond $X=4.15 $Y=1.325
+ $X2=4.15 $Y2=1.985
r109 15 37 21.2229 $w=1.5e-07 $l=1.65e-07 $layer=POLY_cond $X=4.15 $Y=0.995
+ $X2=4.15 $Y2=1.16
r110 15 17 139.78 $w=1.5e-07 $l=4.35e-07 $layer=POLY_cond $X=4.15 $Y=0.995
+ $X2=4.15 $Y2=0.56
r111 11 36 21.2229 $w=1.5e-07 $l=1.65e-07 $layer=POLY_cond $X=3.73 $Y=1.325
+ $X2=3.73 $Y2=1.16
r112 11 13 338.426 $w=1.5e-07 $l=6.6e-07 $layer=POLY_cond $X=3.73 $Y=1.325
+ $X2=3.73 $Y2=1.985
r113 8 36 21.2229 $w=1.5e-07 $l=1.65e-07 $layer=POLY_cond $X=3.73 $Y=0.995
+ $X2=3.73 $Y2=1.16
r114 8 10 139.78 $w=1.5e-07 $l=4.35e-07 $layer=POLY_cond $X=3.73 $Y=0.995
+ $X2=3.73 $Y2=0.56
r115 4 31 21.2229 $w=1.5e-07 $l=1.65e-07 $layer=POLY_cond $X=3.31 $Y=1.325
+ $X2=3.31 $Y2=1.16
r116 4 6 338.426 $w=1.5e-07 $l=6.6e-07 $layer=POLY_cond $X=3.31 $Y=1.325
+ $X2=3.31 $Y2=1.985
r117 1 31 21.2229 $w=1.5e-07 $l=1.65e-07 $layer=POLY_cond $X=3.31 $Y=0.995
+ $X2=3.31 $Y2=1.16
r118 1 3 139.78 $w=1.5e-07 $l=4.35e-07 $layer=POLY_cond $X=3.31 $Y=0.995
+ $X2=3.31 $Y2=0.56
.ends

.subckt PM_SKY130_FD_SC_HD__LPFLOW_ISOBUFSRCKAPWR_16%A_341_47# 1 2 3 4 5 6 21 23
+ 25 28 30 32 35 37 39 42 44 46 49 51 53 55 58 60 63 67 69 73 75 79 84 85 86 91
+ 92 94 95 104 111 114
c220 104 0 1.60903e-20 $X=6.825 $Y=1.155
c221 95 0 1.41095e-19 $X=5.295 $Y=0.85
c222 60 0 1.6807e-19 $X=2.6 $Y=1.445
c223 55 0 1.22434e-19 $X=2.435 $Y=1.595
r224 103 104 45.1103 $w=5.1e-07 $l=4.3e-07 $layer=POLY_cond $X=6.395 $Y=1.155
+ $X2=6.825 $Y2=1.155
r225 102 103 45.1103 $w=5.1e-07 $l=4.3e-07 $layer=POLY_cond $X=5.965 $Y=1.155
+ $X2=6.395 $Y2=1.155
r226 101 102 45.1103 $w=5.1e-07 $l=4.3e-07 $layer=POLY_cond $X=5.535 $Y=1.155
+ $X2=5.965 $Y2=1.155
r227 98 101 21.5061 $w=5.1e-07 $l=2.05e-07 $layer=POLY_cond $X=5.33 $Y=1.155
+ $X2=5.535 $Y2=1.155
r228 98 99 145.28 $w=1.7e-07 $l=1.7e-07 $layer=licon1_POLY $count=1 $X=5.33
+ $Y=1.16 $X2=5.33 $Y2=1.16
r229 95 99 11.3415 $w=3.13e-07 $l=3.1e-07 $layer=LI1_cond $X=5.302 $Y=0.85
+ $X2=5.302 $Y2=1.16
r230 94 95 9.3 $w=1.7e-07 $l=1.7e-07 $layer=mcon $count=1 $X=5.295 $Y=0.85
+ $X2=5.295 $Y2=0.85
r231 91 94 0.115467 $w=2.3e-07 $l=1.45e-07 $layer=MET1_cond $X=5.15 $Y=0.85
+ $X2=5.295 $Y2=0.85
r232 91 92 2.51856 $w=1.4e-07 $l=2.035e-06 $layer=MET1_cond $X=5.15 $Y=0.85
+ $X2=3.115 $Y2=0.85
r233 89 114 6.74844 $w=2.38e-07 $l=1.25e-07 $layer=LI1_cond $X=2.97 $Y=0.845
+ $X2=3.095 $Y2=0.845
r234 88 89 4.65 $w=1.7e-07 $l=3.4e-07 $layer=mcon $count=2 $X=2.97 $Y=0.85
+ $X2=2.97 $Y2=0.85
r235 86 92 0.0850015 $w=2.3e-07 $l=1.15e-07 $layer=MET1_cond $X=3 $Y=0.85
+ $X2=3.115 $Y2=0.85
r236 86 88 0.0192481 $w=2.3e-07 $l=3e-08 $layer=MET1_cond $X=3 $Y=0.85 $X2=2.97
+ $Y2=0.85
r237 77 79 11.699 $w=3.28e-07 $l=3.35e-07 $layer=LI1_cond $X=4.36 $Y=0.725
+ $X2=4.36 $Y2=0.39
r238 76 85 8.26956 $w=1.8e-07 $l=1.65e-07 $layer=LI1_cond $X=3.685 $Y=0.815
+ $X2=3.52 $Y2=0.815
r239 75 77 7.61292 $w=1.8e-07 $l=2.05122e-07 $layer=LI1_cond $X=4.195 $Y=0.815
+ $X2=4.36 $Y2=0.725
r240 75 76 31.4242 $w=1.78e-07 $l=5.1e-07 $layer=LI1_cond $X=4.195 $Y=0.815
+ $X2=3.685 $Y2=0.815
r241 71 85 0.718145 $w=3.3e-07 $l=9e-08 $layer=LI1_cond $X=3.52 $Y=0.725
+ $X2=3.52 $Y2=0.815
r242 71 73 11.699 $w=3.28e-07 $l=3.35e-07 $layer=LI1_cond $X=3.52 $Y=0.725
+ $X2=3.52 $Y2=0.39
r243 69 85 8.26956 $w=1.8e-07 $l=1.65e-07 $layer=LI1_cond $X=3.355 $Y=0.815
+ $X2=3.52 $Y2=0.815
r244 69 114 16.0202 $w=1.78e-07 $l=2.6e-07 $layer=LI1_cond $X=3.355 $Y=0.815
+ $X2=3.095 $Y2=0.815
r245 65 84 5.99569 $w=2.5e-07 $l=1.85742e-07 $layer=LI1_cond $X=2.68 $Y=1.745
+ $X2=2.6 $Y2=1.595
r246 65 67 14.0267 $w=1.68e-07 $l=2.15e-07 $layer=LI1_cond $X=2.68 $Y=1.745
+ $X2=2.68 $Y2=1.96
r247 61 89 13.9254 $w=2.38e-07 $l=2.9e-07 $layer=LI1_cond $X=2.68 $Y=0.845
+ $X2=2.97 $Y2=0.845
r248 61 63 11.699 $w=3.28e-07 $l=3.35e-07 $layer=LI1_cond $X=2.68 $Y=0.725
+ $X2=2.68 $Y2=0.39
r249 60 84 5.99569 $w=2.5e-07 $l=1.5e-07 $layer=LI1_cond $X=2.6 $Y=1.445 $X2=2.6
+ $Y2=1.595
r250 59 61 3.84148 $w=2.38e-07 $l=8e-08 $layer=LI1_cond $X=2.6 $Y=0.845 $X2=2.68
+ $Y2=0.845
r251 59 111 8.66918 $w=2.38e-07 $l=1.65e-07 $layer=LI1_cond $X=2.6 $Y=0.845
+ $X2=2.435 $Y2=0.845
r252 59 60 16.7628 $w=3.28e-07 $l=4.8e-07 $layer=LI1_cond $X=2.6 $Y=0.965
+ $X2=2.6 $Y2=1.445
r253 58 111 26.4949 $w=1.78e-07 $l=4.3e-07 $layer=LI1_cond $X=2.005 $Y=0.815
+ $X2=2.435 $Y2=0.815
r254 56 82 2.71916 $w=3e-07 $l=8.5e-08 $layer=LI1_cond $X=1.925 $Y=1.595
+ $X2=1.84 $Y2=1.595
r255 55 84 0.695019 $w=3e-07 $l=1.65e-07 $layer=LI1_cond $X=2.435 $Y=1.595
+ $X2=2.6 $Y2=1.595
r256 55 56 19.5915 $w=2.98e-07 $l=5.1e-07 $layer=LI1_cond $X=2.435 $Y=1.595
+ $X2=1.925 $Y2=1.595
r257 51 82 4.79851 $w=1.7e-07 $l=1.5e-07 $layer=LI1_cond $X=1.84 $Y=1.745
+ $X2=1.84 $Y2=1.595
r258 51 53 14.0267 $w=1.68e-07 $l=2.15e-07 $layer=LI1_cond $X=1.84 $Y=1.745
+ $X2=1.84 $Y2=1.96
r259 47 58 7.61292 $w=1.8e-07 $l=2.05122e-07 $layer=LI1_cond $X=1.84 $Y=0.725
+ $X2=2.005 $Y2=0.815
r260 47 49 11.699 $w=3.28e-07 $l=3.35e-07 $layer=LI1_cond $X=1.84 $Y=0.725
+ $X2=1.84 $Y2=0.39
r261 44 104 31.9091 $w=1.5e-07 $l=2.55e-07 $layer=POLY_cond $X=6.825 $Y=1.41
+ $X2=6.825 $Y2=1.155
r262 44 46 184.767 $w=1.5e-07 $l=5.75e-07 $layer=POLY_cond $X=6.825 $Y=1.41
+ $X2=6.825 $Y2=1.985
r263 40 104 31.9091 $w=1.5e-07 $l=2.55e-07 $layer=POLY_cond $X=6.825 $Y=0.9
+ $X2=6.825 $Y2=1.155
r264 40 42 233.309 $w=1.5e-07 $l=4.55e-07 $layer=POLY_cond $X=6.825 $Y=0.9
+ $X2=6.825 $Y2=0.445
r265 37 103 31.9091 $w=1.5e-07 $l=2.55e-07 $layer=POLY_cond $X=6.395 $Y=1.41
+ $X2=6.395 $Y2=1.155
r266 37 39 184.767 $w=1.5e-07 $l=5.75e-07 $layer=POLY_cond $X=6.395 $Y=1.41
+ $X2=6.395 $Y2=1.985
r267 33 103 31.9091 $w=1.5e-07 $l=2.55e-07 $layer=POLY_cond $X=6.395 $Y=0.9
+ $X2=6.395 $Y2=1.155
r268 33 35 233.309 $w=1.5e-07 $l=4.55e-07 $layer=POLY_cond $X=6.395 $Y=0.9
+ $X2=6.395 $Y2=0.445
r269 30 102 31.9091 $w=1.5e-07 $l=2.55e-07 $layer=POLY_cond $X=5.965 $Y=1.41
+ $X2=5.965 $Y2=1.155
r270 30 32 184.767 $w=1.5e-07 $l=5.75e-07 $layer=POLY_cond $X=5.965 $Y=1.41
+ $X2=5.965 $Y2=1.985
r271 26 102 31.9091 $w=1.5e-07 $l=2.55e-07 $layer=POLY_cond $X=5.965 $Y=0.9
+ $X2=5.965 $Y2=1.155
r272 26 28 233.309 $w=1.5e-07 $l=4.55e-07 $layer=POLY_cond $X=5.965 $Y=0.9
+ $X2=5.965 $Y2=0.445
r273 23 101 31.9091 $w=1.5e-07 $l=2.55e-07 $layer=POLY_cond $X=5.535 $Y=1.41
+ $X2=5.535 $Y2=1.155
r274 23 25 184.767 $w=1.5e-07 $l=5.75e-07 $layer=POLY_cond $X=5.535 $Y=1.41
+ $X2=5.535 $Y2=1.985
r275 19 101 31.9091 $w=1.5e-07 $l=2.55e-07 $layer=POLY_cond $X=5.535 $Y=0.9
+ $X2=5.535 $Y2=1.155
r276 19 21 233.309 $w=1.5e-07 $l=4.55e-07 $layer=POLY_cond $X=5.535 $Y=0.9
+ $X2=5.535 $Y2=0.445
r277 6 84 600 $w=1.7e-07 $l=1.90919e-07 $layer=licon1_PDIFF $count=1 $X=2.545
+ $Y=1.485 $X2=2.68 $Y2=1.62
r278 6 67 600 $w=1.7e-07 $l=5.38284e-07 $layer=licon1_PDIFF $count=1 $X=2.545
+ $Y=1.485 $X2=2.68 $Y2=1.96
r279 5 82 600 $w=1.7e-07 $l=1.90919e-07 $layer=licon1_PDIFF $count=1 $X=1.705
+ $Y=1.485 $X2=1.84 $Y2=1.62
r280 5 53 600 $w=1.7e-07 $l=5.38284e-07 $layer=licon1_PDIFF $count=1 $X=1.705
+ $Y=1.485 $X2=1.84 $Y2=1.96
r281 4 79 91 $w=1.7e-07 $l=2.12014e-07 $layer=licon1_NDIFF $count=2 $X=4.225
+ $Y=0.235 $X2=4.36 $Y2=0.39
r282 3 73 91 $w=1.7e-07 $l=2.12014e-07 $layer=licon1_NDIFF $count=2 $X=3.385
+ $Y=0.235 $X2=3.52 $Y2=0.39
r283 2 63 91 $w=1.7e-07 $l=2.12014e-07 $layer=licon1_NDIFF $count=2 $X=2.545
+ $Y=0.235 $X2=2.68 $Y2=0.39
r284 1 49 91 $w=1.7e-07 $l=2.12014e-07 $layer=licon1_NDIFF $count=2 $X=1.705
+ $Y=0.235 $X2=1.84 $Y2=0.39
.ends

.subckt PM_SKY130_FD_SC_HD__LPFLOW_ISOBUFSRCKAPWR_16%A_1122_47# 1 2 3 4 15 19 23
+ 27 31 35 39 43 47 51 55 59 63 67 71 75 79 83 87 91 95 99 103 107 111 115 119
+ 123 127 131 133 135 139 143 147 151 155 159 168 171 172
r336 168 169 18.16 $w=1.7e-07 $l=1.36e-06 $layer=licon1_POLY $count=8 $X=12.565
+ $Y=1.16 $X2=12.565 $Y2=1.16
r337 165 168 235.098 $w=2.48e-07 $l=5.1e-06 $layer=LI1_cond $X=7.465 $Y=1.2
+ $X2=12.565 $Y2=1.2
r338 165 166 18.16 $w=1.7e-07 $l=1.36e-06 $layer=licon1_POLY $count=8 $X=7.465
+ $Y=1.16 $X2=7.465 $Y2=1.16
r339 163 172 2.66945 $w=2.5e-07 $l=1.25e-07 $layer=LI1_cond $X=6.74 $Y=1.2
+ $X2=6.615 $Y2=1.2
r340 163 165 33.4208 $w=2.48e-07 $l=7.25e-07 $layer=LI1_cond $X=6.74 $Y=1.2
+ $X2=7.465 $Y2=1.2
r341 159 161 39.6938 $w=1.88e-07 $l=6.8e-07 $layer=LI1_cond $X=6.61 $Y=1.615
+ $X2=6.61 $Y2=2.295
r342 157 172 3.44865 $w=1.9e-07 $l=1.27475e-07 $layer=LI1_cond $X=6.61 $Y=1.325
+ $X2=6.615 $Y2=1.2
r343 157 159 16.9282 $w=1.88e-07 $l=2.9e-07 $layer=LI1_cond $X=6.61 $Y=1.325
+ $X2=6.61 $Y2=1.615
r344 153 172 3.44865 $w=2.5e-07 $l=1.25e-07 $layer=LI1_cond $X=6.615 $Y=1.075
+ $X2=6.615 $Y2=1.2
r345 153 155 29.0416 $w=2.48e-07 $l=6.3e-07 $layer=LI1_cond $X=6.615 $Y=1.075
+ $X2=6.615 $Y2=0.445
r346 152 171 0.681005 $w=2.5e-07 $l=1.13e-07 $layer=LI1_cond $X=5.88 $Y=1.2
+ $X2=5.767 $Y2=1.2
r347 151 172 2.66945 $w=2.5e-07 $l=1.25e-07 $layer=LI1_cond $X=6.49 $Y=1.2
+ $X2=6.615 $Y2=1.2
r348 151 152 28.1196 $w=2.48e-07 $l=6.1e-07 $layer=LI1_cond $X=6.49 $Y=1.2
+ $X2=5.88 $Y2=1.2
r349 147 149 39.6938 $w=1.88e-07 $l=6.8e-07 $layer=LI1_cond $X=5.75 $Y=1.62
+ $X2=5.75 $Y2=2.3
r350 145 171 6.01496 $w=2.07e-07 $l=1.33229e-07 $layer=LI1_cond $X=5.75 $Y=1.325
+ $X2=5.767 $Y2=1.2
r351 145 147 17.2201 $w=1.88e-07 $l=2.95e-07 $layer=LI1_cond $X=5.75 $Y=1.325
+ $X2=5.75 $Y2=1.62
r352 141 171 6.01496 $w=2.07e-07 $l=1.25e-07 $layer=LI1_cond $X=5.767 $Y=1.075
+ $X2=5.767 $Y2=1.2
r353 141 143 32.2684 $w=2.23e-07 $l=6.3e-07 $layer=LI1_cond $X=5.767 $Y=1.075
+ $X2=5.767 $Y2=0.445
r354 137 139 338.426 $w=1.5e-07 $l=6.6e-07 $layer=POLY_cond $X=13.7 $Y=1.325
+ $X2=13.7 $Y2=1.985
r355 133 137 24.2915 $w=1.5e-07 $l=1.88e-07 $layer=POLY_cond $X=13.7 $Y=1.137
+ $X2=13.7 $Y2=1.325
r356 133 135 258.947 $w=1.5e-07 $l=5.05e-07 $layer=POLY_cond $X=13.7 $Y=0.95
+ $X2=13.7 $Y2=0.445
r357 129 131 338.426 $w=1.5e-07 $l=6.6e-07 $layer=POLY_cond $X=13.27 $Y=1.325
+ $X2=13.27 $Y2=1.985
r358 125 133 63.7723 $w=3.75e-07 $l=4.3e-07 $layer=POLY_cond $X=13.27 $Y=1.137
+ $X2=13.7 $Y2=1.137
r359 125 129 24.2915 $w=1.5e-07 $l=1.88e-07 $layer=POLY_cond $X=13.27 $Y=1.137
+ $X2=13.27 $Y2=1.325
r360 125 127 258.947 $w=1.5e-07 $l=5.05e-07 $layer=POLY_cond $X=13.27 $Y=0.95
+ $X2=13.27 $Y2=0.445
r361 121 123 338.426 $w=1.5e-07 $l=6.6e-07 $layer=POLY_cond $X=12.84 $Y=1.325
+ $X2=12.84 $Y2=1.985
r362 117 125 63.7723 $w=3.75e-07 $l=4.3e-07 $layer=POLY_cond $X=12.84 $Y=1.137
+ $X2=13.27 $Y2=1.137
r363 117 121 24.2915 $w=1.5e-07 $l=1.88e-07 $layer=POLY_cond $X=12.84 $Y=1.137
+ $X2=12.84 $Y2=1.325
r364 117 169 40.7846 $w=3.75e-07 $l=2.75e-07 $layer=POLY_cond $X=12.84 $Y=1.137
+ $X2=12.565 $Y2=1.137
r365 117 119 258.947 $w=1.5e-07 $l=5.05e-07 $layer=POLY_cond $X=12.84 $Y=0.95
+ $X2=12.84 $Y2=0.445
r366 113 115 338.426 $w=1.5e-07 $l=6.6e-07 $layer=POLY_cond $X=12.41 $Y=1.325
+ $X2=12.41 $Y2=1.985
r367 109 169 22.9877 $w=3.75e-07 $l=1.55e-07 $layer=POLY_cond $X=12.41 $Y=1.137
+ $X2=12.565 $Y2=1.137
r368 109 113 24.2915 $w=1.5e-07 $l=1.88e-07 $layer=POLY_cond $X=12.41 $Y=1.137
+ $X2=12.41 $Y2=1.325
r369 109 111 258.947 $w=1.5e-07 $l=5.05e-07 $layer=POLY_cond $X=12.41 $Y=0.95
+ $X2=12.41 $Y2=0.445
r370 105 107 338.426 $w=1.5e-07 $l=6.6e-07 $layer=POLY_cond $X=11.98 $Y=1.325
+ $X2=11.98 $Y2=1.985
r371 101 109 63.7723 $w=3.75e-07 $l=4.3e-07 $layer=POLY_cond $X=11.98 $Y=1.137
+ $X2=12.41 $Y2=1.137
r372 101 105 24.2915 $w=1.5e-07 $l=1.88e-07 $layer=POLY_cond $X=11.98 $Y=1.137
+ $X2=11.98 $Y2=1.325
r373 101 103 258.947 $w=1.5e-07 $l=5.05e-07 $layer=POLY_cond $X=11.98 $Y=0.95
+ $X2=11.98 $Y2=0.445
r374 97 99 338.426 $w=1.5e-07 $l=6.6e-07 $layer=POLY_cond $X=11.55 $Y=1.325
+ $X2=11.55 $Y2=1.985
r375 93 101 63.7723 $w=3.75e-07 $l=4.3e-07 $layer=POLY_cond $X=11.55 $Y=1.137
+ $X2=11.98 $Y2=1.137
r376 93 97 24.2915 $w=1.5e-07 $l=1.88e-07 $layer=POLY_cond $X=11.55 $Y=1.137
+ $X2=11.55 $Y2=1.325
r377 93 95 258.947 $w=1.5e-07 $l=5.05e-07 $layer=POLY_cond $X=11.55 $Y=0.95
+ $X2=11.55 $Y2=0.445
r378 89 91 338.426 $w=1.5e-07 $l=6.6e-07 $layer=POLY_cond $X=11.12 $Y=1.325
+ $X2=11.12 $Y2=1.985
r379 85 93 63.7723 $w=3.75e-07 $l=4.3e-07 $layer=POLY_cond $X=11.12 $Y=1.137
+ $X2=11.55 $Y2=1.137
r380 85 89 24.2915 $w=1.5e-07 $l=1.88e-07 $layer=POLY_cond $X=11.12 $Y=1.137
+ $X2=11.12 $Y2=1.325
r381 85 87 258.947 $w=1.5e-07 $l=5.05e-07 $layer=POLY_cond $X=11.12 $Y=0.95
+ $X2=11.12 $Y2=0.445
r382 81 83 338.426 $w=1.5e-07 $l=6.6e-07 $layer=POLY_cond $X=10.69 $Y=1.325
+ $X2=10.69 $Y2=1.985
r383 77 85 63.7723 $w=3.75e-07 $l=4.3e-07 $layer=POLY_cond $X=10.69 $Y=1.137
+ $X2=11.12 $Y2=1.137
r384 77 81 24.2915 $w=1.5e-07 $l=1.88e-07 $layer=POLY_cond $X=10.69 $Y=1.137
+ $X2=10.69 $Y2=1.325
r385 77 79 258.947 $w=1.5e-07 $l=5.05e-07 $layer=POLY_cond $X=10.69 $Y=0.95
+ $X2=10.69 $Y2=0.445
r386 73 75 338.426 $w=1.5e-07 $l=6.6e-07 $layer=POLY_cond $X=10.265 $Y=1.325
+ $X2=10.265 $Y2=1.985
r387 69 77 63.0308 $w=3.75e-07 $l=4.25e-07 $layer=POLY_cond $X=10.265 $Y=1.137
+ $X2=10.69 $Y2=1.137
r388 69 73 24.2915 $w=1.5e-07 $l=1.88e-07 $layer=POLY_cond $X=10.265 $Y=1.137
+ $X2=10.265 $Y2=1.325
r389 69 71 258.947 $w=1.5e-07 $l=5.05e-07 $layer=POLY_cond $X=10.265 $Y=0.95
+ $X2=10.265 $Y2=0.445
r390 65 67 338.426 $w=1.5e-07 $l=6.6e-07 $layer=POLY_cond $X=9.835 $Y=1.325
+ $X2=9.835 $Y2=1.985
r391 61 69 63.7723 $w=3.75e-07 $l=4.3e-07 $layer=POLY_cond $X=9.835 $Y=1.137
+ $X2=10.265 $Y2=1.137
r392 61 65 24.2915 $w=1.5e-07 $l=1.88e-07 $layer=POLY_cond $X=9.835 $Y=1.137
+ $X2=9.835 $Y2=1.325
r393 61 63 258.947 $w=1.5e-07 $l=5.05e-07 $layer=POLY_cond $X=9.835 $Y=0.95
+ $X2=9.835 $Y2=0.445
r394 57 59 338.426 $w=1.5e-07 $l=6.6e-07 $layer=POLY_cond $X=9.405 $Y=1.325
+ $X2=9.405 $Y2=1.985
r395 53 61 63.7723 $w=3.75e-07 $l=4.3e-07 $layer=POLY_cond $X=9.405 $Y=1.137
+ $X2=9.835 $Y2=1.137
r396 53 57 24.2915 $w=1.5e-07 $l=1.88e-07 $layer=POLY_cond $X=9.405 $Y=1.137
+ $X2=9.405 $Y2=1.325
r397 53 55 258.947 $w=1.5e-07 $l=5.05e-07 $layer=POLY_cond $X=9.405 $Y=0.95
+ $X2=9.405 $Y2=0.445
r398 49 51 338.426 $w=1.5e-07 $l=6.6e-07 $layer=POLY_cond $X=8.975 $Y=1.325
+ $X2=8.975 $Y2=1.985
r399 45 53 63.7723 $w=3.75e-07 $l=4.3e-07 $layer=POLY_cond $X=8.975 $Y=1.137
+ $X2=9.405 $Y2=1.137
r400 45 49 24.2915 $w=1.5e-07 $l=1.88e-07 $layer=POLY_cond $X=8.975 $Y=1.137
+ $X2=8.975 $Y2=1.325
r401 45 47 258.947 $w=1.5e-07 $l=5.05e-07 $layer=POLY_cond $X=8.975 $Y=0.95
+ $X2=8.975 $Y2=0.445
r402 41 43 338.426 $w=1.5e-07 $l=6.6e-07 $layer=POLY_cond $X=8.545 $Y=1.325
+ $X2=8.545 $Y2=1.985
r403 37 45 63.7723 $w=3.75e-07 $l=4.3e-07 $layer=POLY_cond $X=8.545 $Y=1.137
+ $X2=8.975 $Y2=1.137
r404 37 41 24.2915 $w=1.5e-07 $l=1.88e-07 $layer=POLY_cond $X=8.545 $Y=1.137
+ $X2=8.545 $Y2=1.325
r405 37 39 258.947 $w=1.5e-07 $l=5.05e-07 $layer=POLY_cond $X=8.545 $Y=0.95
+ $X2=8.545 $Y2=0.445
r406 33 35 338.426 $w=1.5e-07 $l=6.6e-07 $layer=POLY_cond $X=8.115 $Y=1.325
+ $X2=8.115 $Y2=1.985
r407 29 37 63.7723 $w=3.75e-07 $l=4.3e-07 $layer=POLY_cond $X=8.115 $Y=1.137
+ $X2=8.545 $Y2=1.137
r408 29 33 24.2915 $w=1.5e-07 $l=1.88e-07 $layer=POLY_cond $X=8.115 $Y=1.137
+ $X2=8.115 $Y2=1.325
r409 29 31 258.947 $w=1.5e-07 $l=5.05e-07 $layer=POLY_cond $X=8.115 $Y=0.95
+ $X2=8.115 $Y2=0.445
r410 25 27 338.426 $w=1.5e-07 $l=6.6e-07 $layer=POLY_cond $X=7.685 $Y=1.325
+ $X2=7.685 $Y2=1.985
r411 21 29 63.7723 $w=3.75e-07 $l=4.3e-07 $layer=POLY_cond $X=7.685 $Y=1.137
+ $X2=8.115 $Y2=1.137
r412 21 25 24.2915 $w=1.5e-07 $l=1.88e-07 $layer=POLY_cond $X=7.685 $Y=1.137
+ $X2=7.685 $Y2=1.325
r413 21 166 32.6277 $w=3.75e-07 $l=2.2e-07 $layer=POLY_cond $X=7.685 $Y=1.137
+ $X2=7.465 $Y2=1.137
r414 21 23 258.947 $w=1.5e-07 $l=5.05e-07 $layer=POLY_cond $X=7.685 $Y=0.95
+ $X2=7.685 $Y2=0.445
r415 17 19 338.426 $w=1.5e-07 $l=6.6e-07 $layer=POLY_cond $X=7.255 $Y=1.325
+ $X2=7.255 $Y2=1.985
r416 13 166 31.1446 $w=3.75e-07 $l=2.1e-07 $layer=POLY_cond $X=7.255 $Y=1.137
+ $X2=7.465 $Y2=1.137
r417 13 17 24.2915 $w=1.5e-07 $l=1.88e-07 $layer=POLY_cond $X=7.255 $Y=1.137
+ $X2=7.255 $Y2=1.325
r418 13 15 258.947 $w=1.5e-07 $l=5.05e-07 $layer=POLY_cond $X=7.255 $Y=0.95
+ $X2=7.255 $Y2=0.445
r419 4 161 400 $w=1.7e-07 $l=8.77211e-07 $layer=licon1_PDIFF $count=1 $X=6.47
+ $Y=1.485 $X2=6.61 $Y2=2.295
r420 4 159 400 $w=1.7e-07 $l=1.94422e-07 $layer=licon1_PDIFF $count=1 $X=6.47
+ $Y=1.485 $X2=6.61 $Y2=1.615
r421 3 149 400 $w=1.7e-07 $l=8.82227e-07 $layer=licon1_PDIFF $count=1 $X=5.61
+ $Y=1.485 $X2=5.75 $Y2=2.3
r422 3 147 400 $w=1.7e-07 $l=1.96214e-07 $layer=licon1_PDIFF $count=1 $X=5.61
+ $Y=1.485 $X2=5.75 $Y2=1.62
r423 2 155 182 $w=1.7e-07 $l=2.71109e-07 $layer=licon1_NDIFF $count=1 $X=6.47
+ $Y=0.235 $X2=6.61 $Y2=0.445
r424 1 143 182 $w=1.7e-07 $l=2.71109e-07 $layer=licon1_NDIFF $count=1 $X=5.61
+ $Y=0.235 $X2=5.75 $Y2=0.445
.ends

.subckt PM_SKY130_FD_SC_HD__LPFLOW_ISOBUFSRCKAPWR_16%VPWR 1 2 3 10 12 18 22 24
+ 26 31 41 42 48 51
c198 41 0 1.77237e-19 $X=14.03 $Y=2.72
r199 51 52 9.3 $w=1.7e-07 $l=1.7e-07 $layer=mcon $count=1 $X=4.37 $Y=2.72
+ $X2=4.37 $Y2=2.72
r200 48 49 2.65714 $w=1.7e-07 $l=5.95e-07 $layer=mcon $count=3 $X=3.45 $Y=2.72
+ $X2=3.45 $Y2=2.72
r201 41 42 0.885714 $w=1.7e-07 $l=1.785e-06 $layer=mcon $count=10 $X=14.03
+ $Y=2.72 $X2=14.03 $Y2=2.72
r202 39 42 2.61778 $w=4.8e-07 $l=9.2e-06 $layer=MET1_cond $X=4.83 $Y=2.72
+ $X2=14.03 $Y2=2.72
r203 39 52 0.130889 $w=4.8e-07 $l=4.6e-07 $layer=MET1_cond $X=4.83 $Y=2.72
+ $X2=4.37 $Y2=2.72
r204 38 41 600.214 $w=1.68e-07 $l=9.2e-06 $layer=LI1_cond $X=4.83 $Y=2.72
+ $X2=14.03 $Y2=2.72
r205 38 39 0.885714 $w=1.7e-07 $l=1.785e-06 $layer=mcon $count=10 $X=4.83
+ $Y=2.72 $X2=4.83 $Y2=2.72
r206 36 51 8.61065 $w=1.7e-07 $l=1.65e-07 $layer=LI1_cond $X=4.525 $Y=2.72
+ $X2=4.36 $Y2=2.72
r207 36 38 19.8984 $w=1.68e-07 $l=3.05e-07 $layer=LI1_cond $X=4.525 $Y=2.72
+ $X2=4.83 $Y2=2.72
r208 35 52 0.130889 $w=4.8e-07 $l=4.6e-07 $layer=MET1_cond $X=3.91 $Y=2.72
+ $X2=4.37 $Y2=2.72
r209 35 49 0.130889 $w=4.8e-07 $l=4.6e-07 $layer=MET1_cond $X=3.91 $Y=2.72
+ $X2=3.45 $Y2=2.72
r210 34 35 9.3 $w=1.7e-07 $l=1.7e-07 $layer=mcon $count=1 $X=3.91 $Y=2.72
+ $X2=3.91 $Y2=2.72
r211 32 48 7.02821 $w=1.7e-07 $l=1.25e-07 $layer=LI1_cond $X=3.685 $Y=2.72
+ $X2=3.56 $Y2=2.72
r212 32 34 14.6791 $w=1.68e-07 $l=2.25e-07 $layer=LI1_cond $X=3.685 $Y=2.72
+ $X2=3.91 $Y2=2.72
r213 31 51 8.61065 $w=1.7e-07 $l=1.65e-07 $layer=LI1_cond $X=4.195 $Y=2.72
+ $X2=4.36 $Y2=2.72
r214 31 34 18.5936 $w=1.68e-07 $l=2.85e-07 $layer=LI1_cond $X=4.195 $Y=2.72
+ $X2=3.91 $Y2=2.72
r215 30 49 0.785335 $w=4.8e-07 $l=2.76e-06 $layer=MET1_cond $X=0.69 $Y=2.72
+ $X2=3.45 $Y2=2.72
r216 29 30 2.65714 $w=1.7e-07 $l=5.95e-07 $layer=mcon $count=3 $X=0.69 $Y=2.72
+ $X2=0.69 $Y2=2.72
r217 27 45 5.39493 $w=1.7e-07 $l=2.68e-07 $layer=LI1_cond $X=0.535 $Y=2.72
+ $X2=0.267 $Y2=2.72
r218 27 29 10.1123 $w=1.68e-07 $l=1.55e-07 $layer=LI1_cond $X=0.535 $Y=2.72
+ $X2=0.69 $Y2=2.72
r219 26 48 7.02821 $w=1.7e-07 $l=1.25e-07 $layer=LI1_cond $X=3.435 $Y=2.72
+ $X2=3.56 $Y2=2.72
r220 26 29 179.086 $w=1.68e-07 $l=2.745e-06 $layer=LI1_cond $X=3.435 $Y=2.72
+ $X2=0.69 $Y2=2.72
r221 24 30 0.130889 $w=4.8e-07 $l=4.6e-07 $layer=MET1_cond $X=0.23 $Y=2.72
+ $X2=0.69 $Y2=2.72
r222 24 45 9.3 $w=1.7e-07 $l=1.7e-07 $layer=mcon $count=1 $X=0.23 $Y=2.72
+ $X2=0.23 $Y2=2.72
r223 20 51 0.89609 $w=3.3e-07 $l=8.5e-08 $layer=LI1_cond $X=4.36 $Y=2.635
+ $X2=4.36 $Y2=2.72
r224 20 22 22.1758 $w=3.28e-07 $l=6.35e-07 $layer=LI1_cond $X=4.36 $Y=2.635
+ $X2=4.36 $Y2=2
r225 16 48 0.00168595 $w=2.5e-07 $l=8.5e-08 $layer=LI1_cond $X=3.56 $Y=2.635
+ $X2=3.56 $Y2=2.72
r226 16 18 29.2721 $w=2.48e-07 $l=6.35e-07 $layer=LI1_cond $X=3.56 $Y=2.635
+ $X2=3.56 $Y2=2
r227 12 15 19.3497 $w=4.03e-07 $l=6.8e-07 $layer=LI1_cond $X=0.332 $Y=1.66
+ $X2=0.332 $Y2=2.34
r228 10 45 3.01955 $w=4.05e-07 $l=1.12916e-07 $layer=LI1_cond $X=0.332 $Y=2.635
+ $X2=0.267 $Y2=2.72
r229 10 15 8.39434 $w=4.03e-07 $l=2.95e-07 $layer=LI1_cond $X=0.332 $Y=2.635
+ $X2=0.332 $Y2=2.34
r230 3 22 300 $w=1.7e-07 $l=5.78576e-07 $layer=licon1_PDIFF $count=2 $X=4.225
+ $Y=1.485 $X2=4.36 $Y2=2
r231 2 18 300 $w=1.7e-07 $l=5.78576e-07 $layer=licon1_PDIFF $count=2 $X=3.385
+ $Y=1.485 $X2=3.52 $Y2=2
r232 1 15 400 $w=1.7e-07 $l=9.24662e-07 $layer=licon1_PDIFF $count=1 $X=0.305
+ $Y=1.485 $X2=0.45 $Y2=2.34
r233 1 12 400 $w=1.7e-07 $l=2.36643e-07 $layer=licon1_PDIFF $count=1 $X=0.305
+ $Y=1.485 $X2=0.45 $Y2=1.66
.ends

.subckt PM_SKY130_FD_SC_HD__LPFLOW_ISOBUFSRCKAPWR_16%A_255_297# 1 2 3 4 5 16 18
+ 20 24 26 28 29 30 34 36 38 40 44 50
c102 28 0 7.39456e-20 $X=3.1 $Y=1.665
c103 26 0 1.22434e-19 $X=2.935 $Y=2.38
r104 38 52 2.99957 $w=2.8e-07 $l=1.05e-07 $layer=LI1_cond $X=4.835 $Y=1.665
+ $X2=4.835 $Y2=1.56
r105 38 40 26.1358 $w=2.78e-07 $l=6.35e-07 $layer=LI1_cond $X=4.835 $Y=1.665
+ $X2=4.835 $Y2=2.3
r106 37 50 4.3182 $w=2.1e-07 $l=8.5e-08 $layer=LI1_cond $X=4.025 $Y=1.56
+ $X2=3.94 $Y2=1.56
r107 36 52 3.99943 $w=2.1e-07 $l=1.4e-07 $layer=LI1_cond $X=4.695 $Y=1.56
+ $X2=4.835 $Y2=1.56
r108 36 37 35.3853 $w=2.08e-07 $l=6.7e-07 $layer=LI1_cond $X=4.695 $Y=1.56
+ $X2=4.025 $Y2=1.56
r109 32 50 2.11342 $w=1.7e-07 $l=1.05e-07 $layer=LI1_cond $X=3.94 $Y=1.665
+ $X2=3.94 $Y2=1.56
r110 32 34 41.4278 $w=1.68e-07 $l=6.35e-07 $layer=LI1_cond $X=3.94 $Y=1.665
+ $X2=3.94 $Y2=2.3
r111 31 46 4.43891 $w=2.1e-07 $l=1.65e-07 $layer=LI1_cond $X=3.265 $Y=1.56
+ $X2=3.1 $Y2=1.56
r112 30 50 4.3182 $w=2.1e-07 $l=8.5e-08 $layer=LI1_cond $X=3.855 $Y=1.56
+ $X2=3.94 $Y2=1.56
r113 30 31 31.1602 $w=2.08e-07 $l=5.9e-07 $layer=LI1_cond $X=3.855 $Y=1.56
+ $X2=3.265 $Y2=1.56
r114 29 48 2.6405 $w=3.3e-07 $l=8.5e-08 $layer=LI1_cond $X=3.1 $Y=2.295 $X2=3.1
+ $Y2=2.38
r115 28 46 2.82476 $w=3.3e-07 $l=1.05e-07 $layer=LI1_cond $X=3.1 $Y=1.665
+ $X2=3.1 $Y2=1.56
r116 28 29 22.0012 $w=3.28e-07 $l=6.3e-07 $layer=LI1_cond $X=3.1 $Y=1.665
+ $X2=3.1 $Y2=2.295
r117 27 44 8.61065 $w=1.7e-07 $l=1.65e-07 $layer=LI1_cond $X=2.425 $Y=2.38
+ $X2=2.26 $Y2=2.38
r118 26 48 5.12568 $w=1.7e-07 $l=1.65e-07 $layer=LI1_cond $X=2.935 $Y=2.38
+ $X2=3.1 $Y2=2.38
r119 26 27 33.2727 $w=1.68e-07 $l=5.1e-07 $layer=LI1_cond $X=2.935 $Y=2.38
+ $X2=2.425 $Y2=2.38
r120 22 44 0.89609 $w=3.3e-07 $l=8.5e-08 $layer=LI1_cond $X=2.26 $Y=2.295
+ $X2=2.26 $Y2=2.38
r121 22 24 9.60369 $w=3.28e-07 $l=2.75e-07 $layer=LI1_cond $X=2.26 $Y=2.295
+ $X2=2.26 $Y2=2.02
r122 21 43 5.66317 $w=1.7e-07 $l=1.9e-07 $layer=LI1_cond $X=1.585 $Y=2.38
+ $X2=1.395 $Y2=2.38
r123 20 44 8.61065 $w=1.7e-07 $l=1.65e-07 $layer=LI1_cond $X=2.095 $Y=2.38
+ $X2=2.26 $Y2=2.38
r124 20 21 33.2727 $w=1.68e-07 $l=5.1e-07 $layer=LI1_cond $X=2.095 $Y=2.38
+ $X2=1.585 $Y2=2.38
r125 16 43 2.53352 $w=3.8e-07 $l=8.5e-08 $layer=LI1_cond $X=1.395 $Y=2.295
+ $X2=1.395 $Y2=2.38
r126 16 18 19.2579 $w=3.78e-07 $l=6.35e-07 $layer=LI1_cond $X=1.395 $Y=2.295
+ $X2=1.395 $Y2=1.66
r127 5 52 400 $w=1.7e-07 $l=1.90919e-07 $layer=licon1_PDIFF $count=1 $X=4.645
+ $Y=1.485 $X2=4.78 $Y2=1.62
r128 5 40 400 $w=1.7e-07 $l=8.79915e-07 $layer=licon1_PDIFF $count=1 $X=4.645
+ $Y=1.485 $X2=4.78 $Y2=2.3
r129 4 50 400 $w=1.7e-07 $l=1.90919e-07 $layer=licon1_PDIFF $count=1 $X=3.805
+ $Y=1.485 $X2=3.94 $Y2=1.62
r130 4 34 400 $w=1.7e-07 $l=8.79915e-07 $layer=licon1_PDIFF $count=1 $X=3.805
+ $Y=1.485 $X2=3.94 $Y2=2.3
r131 3 48 400 $w=1.7e-07 $l=9.20027e-07 $layer=licon1_PDIFF $count=1 $X=2.965
+ $Y=1.485 $X2=3.1 $Y2=2.34
r132 3 46 400 $w=1.7e-07 $l=1.90919e-07 $layer=licon1_PDIFF $count=1 $X=2.965
+ $Y=1.485 $X2=3.1 $Y2=1.62
r133 2 24 300 $w=1.7e-07 $l=5.98707e-07 $layer=licon1_PDIFF $count=2 $X=2.125
+ $Y=1.485 $X2=2.26 $Y2=2.02
r134 1 43 400 $w=1.7e-07 $l=9.24662e-07 $layer=licon1_PDIFF $count=1 $X=1.275
+ $Y=1.485 $X2=1.42 $Y2=2.34
r135 1 18 400 $w=1.7e-07 $l=2.36643e-07 $layer=licon1_PDIFF $count=1 $X=1.275
+ $Y=1.485 $X2=1.42 $Y2=1.66
.ends

.subckt PM_SKY130_FD_SC_HD__LPFLOW_ISOBUFSRCKAPWR_16%KAPWR 1 2 3 4 5 6 7 8 9 10