* File: sky130_fd_sc_hd__lpflow_lsbuf_lh_isowell_4.pex.spice
* Created: Tue Sep  1 19:13:28 2020
* Program "Calibre xRC"
* Version "v2018.4_34.26"
* Nominal Temperature: 27C
* Circuit Temperature: 27C
* 
.subckt PM_SKY130_FD_SC_HD__LPFLOW_LSBUF_LH_ISOWELL_4%LOWLVPWR 1 7 11 16 17 20
+ 25 26 30 32 34
c62 25 0 2.86228e-19 $X=2.225 $Y=2.2
r63 30 32 1.10767 $w=1.4e-07 $l=8.95e-07 $layer=MET1_cond $X=1.36 $Y=2.21
+ $X2=0.465 $Y2=2.21
r64 26 34 2.07418 $w=2.7e-07 $l=1.65e-07 $layer=LI1_cond $X=2.225 $Y=2.2
+ $X2=2.06 $Y2=2.2
r65 25 26 6.2 $w=1.7e-07 $l=2.55e-07 $layer=mcon $count=1 $X=2.225 $Y=2.2
+ $X2=2.225 $Y2=2.2
r66 23 34 23.6891 $w=2.68e-07 $l=5.55e-07 $layer=LI1_cond $X=1.505 $Y=2.2
+ $X2=2.06 $Y2=2.2
r67 22 25 0.461955 $w=2.3e-07 $l=7.2e-07 $layer=MET1_cond $X=1.505 $Y=2.2
+ $X2=2.225 $Y2=2.2
r68 22 23 6.2 $w=1.7e-07 $l=2.55e-07 $layer=mcon $count=1 $X=1.505 $Y=2.2
+ $X2=1.505 $Y2=2.2
r69 20 30 0.0864037 $w=2.3e-07 $l=1.15e-07 $layer=MET1_cond $X=1.475 $Y=2.2
+ $X2=1.36 $Y2=2.2
r70 20 22 0.0192481 $w=2.3e-07 $l=3e-08 $layer=MET1_cond $X=1.475 $Y=2.2
+ $X2=1.505 $Y2=2.2
r71 16 17 17.048 $w=7.48e-07 $l=8.3e-07 $layer=LI1_cond $X=2.435 $Y=3.49
+ $X2=2.435 $Y2=2.66
r72 13 26 4.35802 $w=3.3e-07 $l=1.35e-07 $layer=LI1_cond $X=2.225 $Y=2.335
+ $X2=2.225 $Y2=2.2
r73 13 17 11.3498 $w=3.28e-07 $l=3.25e-07 $layer=LI1_cond $X=2.225 $Y=2.335
+ $X2=2.225 $Y2=2.66
r74 9 26 4.35802 $w=3.3e-07 $l=1.35e-07 $layer=LI1_cond $X=2.225 $Y=2.065
+ $X2=2.225 $Y2=2.2
r75 9 11 9.60369 $w=3.28e-07 $l=2.75e-07 $layer=LI1_cond $X=2.225 $Y=2.065
+ $X2=2.225 $Y2=1.79
r76 7 16 91 $w=1.7e-07 $l=6.45697e-07 $layer=licon1_NTAP_notbjt $count=2 $X=2.1
+ $Y=3.27 $X2=2.645 $Y2=3.49
r77 1 11 300 $w=1.7e-07 $l=3.62146e-07 $layer=licon1_PDIFF $count=2 $X=2.1
+ $Y=1.485 $X2=2.225 $Y2=1.79
.ends

.subckt PM_SKY130_FD_SC_HD__LPFLOW_LSBUF_LH_ISOWELL_4%A_505_297# 1 2 7 9 10 12
+ 13 14 15 17 18 20 22 28 31 35 36 39 40
c82 40 0 1.64106e-19 $X=3.225 $Y=3.84
c83 39 0 1.09489e-19 $X=3.225 $Y=3.84
r84 39 40 145.28 $w=1.7e-07 $l=1.7e-07 $layer=licon1_POLY $count=1 $X=3.225
+ $Y=3.84 $X2=3.225 $Y2=3.84
r85 37 39 51.3361 $w=3.28e-07 $l=1.47e-06 $layer=LI1_cond $X=3.225 $Y=2.37
+ $X2=3.225 $Y2=3.84
r86 35 37 7.03987 $w=2.4e-07 $l=2.16852e-07 $layer=LI1_cond $X=3.06 $Y=2.25
+ $X2=3.225 $Y2=2.37
r87 35 36 12.4848 $w=2.38e-07 $l=2.6e-07 $layer=LI1_cond $X=3.06 $Y=2.25 $X2=2.8
+ $Y2=2.25
r88 31 34 56.1816 $w=2.38e-07 $l=1.17e-06 $layer=LI1_cond $X=2.68 $Y=0.62
+ $X2=2.68 $Y2=1.79
r89 29 36 6.81649 $w=2.4e-07 $l=1.69706e-07 $layer=LI1_cond $X=2.68 $Y=2.13
+ $X2=2.8 $Y2=2.25
r90 29 34 16.3263 $w=2.38e-07 $l=3.4e-07 $layer=LI1_cond $X=2.68 $Y=2.13
+ $X2=2.68 $Y2=1.79
r91 26 40 80.7859 $w=3.5e-07 $l=4.9e-07 $layer=POLY_cond $X=3.235 $Y=4.33
+ $X2=3.235 $Y2=3.84
r92 26 27 112.809 $w=1.5e-07 $l=2.2e-07 $layer=POLY_cond $X=3.235 $Y=4.405
+ $X2=3.455 $Y2=4.405
r93 23 26 107.681 $w=1.5e-07 $l=2.1e-07 $layer=POLY_cond $X=3.025 $Y=4.405
+ $X2=3.235 $Y2=4.405
r94 20 22 128.533 $w=1.5e-07 $l=4e-07 $layer=POLY_cond $X=4.315 $Y=4.48
+ $X2=4.315 $Y2=4.88
r95 19 28 20.4101 $w=1.5e-07 $l=7.5e-08 $layer=POLY_cond $X=3.96 $Y=4.405
+ $X2=3.885 $Y2=4.405
r96 18 20 26.9307 $w=1.5e-07 $l=1.06066e-07 $layer=POLY_cond $X=4.24 $Y=4.405
+ $X2=4.315 $Y2=4.48
r97 18 19 143.574 $w=1.5e-07 $l=2.8e-07 $layer=POLY_cond $X=4.24 $Y=4.405
+ $X2=3.96 $Y2=4.405
r98 15 28 5.30422 $w=1.5e-07 $l=7.5e-08 $layer=POLY_cond $X=3.885 $Y=4.48
+ $X2=3.885 $Y2=4.405
r99 15 17 128.533 $w=1.5e-07 $l=4e-07 $layer=POLY_cond $X=3.885 $Y=4.48
+ $X2=3.885 $Y2=4.88
r100 14 27 38.4574 $w=1.5e-07 $l=7.5e-08 $layer=POLY_cond $X=3.53 $Y=4.405
+ $X2=3.455 $Y2=4.405
r101 13 28 20.4101 $w=1.5e-07 $l=7.5e-08 $layer=POLY_cond $X=3.81 $Y=4.405
+ $X2=3.885 $Y2=4.405
r102 13 14 143.574 $w=1.5e-07 $l=2.8e-07 $layer=POLY_cond $X=3.81 $Y=4.405
+ $X2=3.53 $Y2=4.405
r103 10 27 2.83073 $w=1.5e-07 $l=7.5e-08 $layer=POLY_cond $X=3.455 $Y=4.48
+ $X2=3.455 $Y2=4.405
r104 10 12 128.533 $w=1.5e-07 $l=4e-07 $layer=POLY_cond $X=3.455 $Y=4.48
+ $X2=3.455 $Y2=4.88
r105 7 23 2.83073 $w=1.5e-07 $l=7.5e-08 $layer=POLY_cond $X=3.025 $Y=4.48
+ $X2=3.025 $Y2=4.405
r106 7 9 128.533 $w=1.5e-07 $l=4e-07 $layer=POLY_cond $X=3.025 $Y=4.48 $X2=3.025
+ $Y2=4.88
r107 2 34 300 $w=1.7e-07 $l=3.72525e-07 $layer=licon1_PDIFF $count=2 $X=2.525
+ $Y=1.485 $X2=2.675 $Y2=1.79
r108 1 31 182 $w=1.7e-07 $l=2.71109e-07 $layer=licon1_NDIFF $count=1 $X=2.535
+ $Y=0.41 $X2=2.675 $Y2=0.62
.ends

.subckt PM_SKY130_FD_SC_HD__LPFLOW_LSBUF_LH_ISOWELL_4%A_714_47# 1 2 3 10 11 14
+ 19 22 23 24 28 29 30 31 34 38 45
c100 28 0 1.64375e-19 $X=4.105 $Y=2.07
c101 14 0 7.6696e-20 $X=4.78 $Y=1.955
c102 11 0 1.09489e-19 $X=4.27 $Y=2.58
c103 10 0 1.90316e-19 $X=4.705 $Y=2.58
r104 43 45 22.1818 $w=1.68e-07 $l=3.4e-07 $layer=LI1_cond $X=3.765 $Y=2.49
+ $X2=4.105 $Y2=2.49
r105 40 42 18.2086 $w=2.48e-07 $l=3.95e-07 $layer=LI1_cond $X=3.71 $Y=0.855
+ $X2=4.105 $Y2=0.855
r106 36 38 18.0957 $w=1.88e-07 $l=3.1e-07 $layer=LI1_cond $X=4.57 $Y=0.73
+ $X2=4.57 $Y2=0.42
r107 32 34 8.20679 $w=3.28e-07 $l=2.35e-07 $layer=LI1_cond $X=4.555 $Y=3.47
+ $X2=4.555 $Y2=3.235
r108 31 42 3.91831 $w=2.48e-07 $l=8.5e-08 $layer=LI1_cond $X=4.19 $Y=0.855
+ $X2=4.105 $Y2=0.855
r109 30 36 6.98266 $w=2.5e-07 $l=1.65831e-07 $layer=LI1_cond $X=4.475 $Y=0.855
+ $X2=4.57 $Y2=0.73
r110 30 31 13.1378 $w=2.48e-07 $l=2.85e-07 $layer=LI1_cond $X=4.475 $Y=0.855
+ $X2=4.19 $Y2=0.855
r111 28 29 72.64 $w=1.7e-07 $l=3.4e-07 $layer=licon1_POLY $count=2 $X=4.105
+ $Y=2.07 $X2=4.105 $Y2=2.07
r112 26 45 0.716491 $w=1.7e-07 $l=8.5e-08 $layer=LI1_cond $X=4.105 $Y=2.405
+ $X2=4.105 $Y2=2.49
r113 26 28 21.8556 $w=1.68e-07 $l=3.35e-07 $layer=LI1_cond $X=4.105 $Y=2.405
+ $X2=4.105 $Y2=2.07
r114 25 42 2.99516 $w=1.7e-07 $l=1.25e-07 $layer=LI1_cond $X=4.105 $Y=0.98
+ $X2=4.105 $Y2=0.855
r115 25 28 71.1123 $w=1.68e-07 $l=1.09e-06 $layer=LI1_cond $X=4.105 $Y=0.98
+ $X2=4.105 $Y2=2.07
r116 23 32 9.70995 $w=1.99e-07 $l=2.03101e-07 $layer=LI1_cond $X=4.39 $Y=3.555
+ $X2=4.555 $Y2=3.47
r117 23 24 35.2299 $w=1.68e-07 $l=5.4e-07 $layer=LI1_cond $X=4.39 $Y=3.555
+ $X2=3.85 $Y2=3.555
r118 22 24 6.81649 $w=1.7e-07 $l=1.20208e-07 $layer=LI1_cond $X=3.765 $Y=3.47
+ $X2=3.85 $Y2=3.555
r119 21 43 0.716491 $w=1.7e-07 $l=8.5e-08 $layer=LI1_cond $X=3.765 $Y=2.575
+ $X2=3.765 $Y2=2.49
r120 21 22 58.3904 $w=1.68e-07 $l=8.95e-07 $layer=LI1_cond $X=3.765 $Y=2.575
+ $X2=3.765 $Y2=3.47
r121 17 40 2.34666 $w=1.9e-07 $l=1.25e-07 $layer=LI1_cond $X=3.71 $Y=0.73
+ $X2=3.71 $Y2=0.855
r122 17 19 18.0957 $w=1.88e-07 $l=3.1e-07 $layer=LI1_cond $X=3.71 $Y=0.73
+ $X2=3.71 $Y2=0.42
r123 16 29 76.0647 $w=3.3e-07 $l=4.35e-07 $layer=POLY_cond $X=4.105 $Y=2.505
+ $X2=4.105 $Y2=2.07
r124 12 14 282.021 $w=1.5e-07 $l=5.5e-07 $layer=POLY_cond $X=4.78 $Y=2.505
+ $X2=4.78 $Y2=1.955
r125 11 16 32.1775 $w=1.5e-07 $l=1.98997e-07 $layer=POLY_cond $X=4.27 $Y=2.58
+ $X2=4.105 $Y2=2.505
r126 10 12 26.9307 $w=1.5e-07 $l=1.06066e-07 $layer=POLY_cond $X=4.705 $Y=2.58
+ $X2=4.78 $Y2=2.505
r127 10 11 223.053 $w=1.5e-07 $l=4.35e-07 $layer=POLY_cond $X=4.705 $Y=2.58
+ $X2=4.27 $Y2=2.58
r128 3 34 300 $w=1.7e-07 $l=1.97864e-07 $layer=licon1_PDIFF $count=2 $X=4.43
+ $Y=3.09 $X2=4.555 $Y2=3.235
r129 2 38 91 $w=1.7e-07 $l=2.45204e-07 $layer=licon1_NDIFF $count=2 $X=4.43
+ $Y=0.235 $X2=4.57 $Y2=0.42
r130 1 19 91 $w=1.7e-07 $l=2.45204e-07 $layer=licon1_NDIFF $count=2 $X=3.57
+ $Y=0.235 $X2=3.71 $Y2=0.42
.ends

.subckt PM_SKY130_FD_SC_HD__LPFLOW_LSBUF_LH_ISOWELL_4%A 3 5 7 8 12 14 15 18 20
+ 24 26 30 32 33 34 35 39
c71 15 0 1.64375e-19 $X=3.63 $Y=1.145
r72 38 39 145.28 $w=1.7e-07 $l=1.7e-07 $layer=licon1_POLY $count=1 $X=3.125
+ $Y=1.25 $X2=3.125 $Y2=1.25
r73 35 39 6.30242 $w=3.18e-07 $l=1.75e-07 $layer=LI1_cond $X=3.13 $Y=1.425
+ $X2=3.13 $Y2=1.25
r74 28 30 261.511 $w=1.5e-07 $l=5.1e-07 $layer=POLY_cond $X=4.785 $Y=1.07
+ $X2=4.785 $Y2=0.56
r75 27 34 20.4101 $w=1.5e-07 $l=7.5e-08 $layer=POLY_cond $X=4.43 $Y=1.145
+ $X2=4.355 $Y2=1.145
r76 26 28 26.9307 $w=1.5e-07 $l=1.06066e-07 $layer=POLY_cond $X=4.71 $Y=1.145
+ $X2=4.785 $Y2=1.07
r77 26 27 143.574 $w=1.5e-07 $l=2.8e-07 $layer=POLY_cond $X=4.71 $Y=1.145
+ $X2=4.43 $Y2=1.145
r78 22 34 5.30422 $w=1.5e-07 $l=7.5e-08 $layer=POLY_cond $X=4.355 $Y=1.07
+ $X2=4.355 $Y2=1.145
r79 22 24 261.511 $w=1.5e-07 $l=5.1e-07 $layer=POLY_cond $X=4.355 $Y=1.07
+ $X2=4.355 $Y2=0.56
r80 21 33 20.4101 $w=1.5e-07 $l=7.5e-08 $layer=POLY_cond $X=4 $Y=1.145 $X2=3.925
+ $Y2=1.145
r81 20 34 20.4101 $w=1.5e-07 $l=7.5e-08 $layer=POLY_cond $X=4.28 $Y=1.145
+ $X2=4.355 $Y2=1.145
r82 20 21 143.574 $w=1.5e-07 $l=2.8e-07 $layer=POLY_cond $X=4.28 $Y=1.145 $X2=4
+ $Y2=1.145
r83 16 33 5.30422 $w=1.5e-07 $l=7.5e-08 $layer=POLY_cond $X=3.925 $Y=1.07
+ $X2=3.925 $Y2=1.145
r84 16 18 261.511 $w=1.5e-07 $l=5.1e-07 $layer=POLY_cond $X=3.925 $Y=1.07
+ $X2=3.925 $Y2=0.56
r85 14 33 20.4101 $w=1.5e-07 $l=7.5e-08 $layer=POLY_cond $X=3.85 $Y=1.145
+ $X2=3.925 $Y2=1.145
r86 14 15 112.809 $w=1.5e-07 $l=2.2e-07 $layer=POLY_cond $X=3.85 $Y=1.145
+ $X2=3.63 $Y2=1.145
r87 10 15 33.8325 $w=2.41e-07 $l=1.68375e-07 $layer=POLY_cond $X=3.495 $Y=1.07
+ $X2=3.63 $Y2=1.145
r88 10 38 74 $w=2.41e-07 $l=4.75857e-07 $layer=POLY_cond $X=3.495 $Y=1.07
+ $X2=3.125 $Y2=1.312
r89 10 12 261.511 $w=1.5e-07 $l=5.1e-07 $layer=POLY_cond $X=3.495 $Y=1.07
+ $X2=3.495 $Y2=0.56
r90 9 32 4.83878 $w=1.55e-07 $l=9.38083e-08 $layer=POLY_cond $X=2.535 $Y=1.147
+ $X2=2.455 $Y2=1.117
r91 8 38 39.1212 $w=2.41e-07 $l=2.33345e-07 $layer=POLY_cond $X=2.96 $Y=1.147
+ $X2=3.125 $Y2=1.312
r92 8 9 203.325 $w=1.55e-07 $l=4.25e-07 $layer=POLY_cond $X=2.96 $Y=1.147
+ $X2=2.535 $Y2=1.147
r93 5 32 20.9729 $w=1.5e-07 $l=1.09471e-07 $layer=POLY_cond $X=2.46 $Y=1.01
+ $X2=2.455 $Y2=1.117
r94 5 7 125.32 $w=1.5e-07 $l=3.9e-07 $layer=POLY_cond $X=2.46 $Y=1.01 $X2=2.46
+ $Y2=0.62
r95 1 32 20.9729 $w=1.5e-07 $l=1.10472e-07 $layer=POLY_cond $X=2.45 $Y=1.225
+ $X2=2.455 $Y2=1.117
r96 1 3 389.702 $w=1.5e-07 $l=7.6e-07 $layer=POLY_cond $X=2.45 $Y=1.225 $X2=2.45
+ $Y2=1.985
.ends

.subckt PM_SKY130_FD_SC_HD__LPFLOW_LSBUF_LH_ISOWELL_4%A_620_911# 1 2 3 10 11 12
+ 17 18 20 24 29 31 32 34 38 40 41 44 48 49 53 56 57 60 62 63
c117 60 0 1.02426e-19 $X=4.555 $Y=1.79
c118 44 0 7.14482e-20 $X=4.1 $Y=4.735
c119 38 0 9.26578e-20 $X=3.24 $Y=4.735
c120 31 0 8.23968e-20 $X=4.78 $Y=2.94
c121 24 0 9.10198e-20 $X=5.085 $Y=4.88
c122 18 0 1.25592e-19 $X=5.16 $Y=2.94
c123 11 0 1.76914e-21 $X=4.27 $Y=2.94
c124 10 0 7.64702e-20 $X=4.705 $Y=2.94
r125 58 60 62.3048 $w=1.68e-07 $l=9.55e-07 $layer=LI1_cond $X=4.555 $Y=2.745
+ $X2=4.555 $Y2=1.79
r126 56 58 6.81649 $w=1.7e-07 $l=1.20208e-07 $layer=LI1_cond $X=4.47 $Y=2.83
+ $X2=4.555 $Y2=2.745
r127 56 57 18.2674 $w=1.68e-07 $l=2.8e-07 $layer=LI1_cond $X=4.47 $Y=2.83
+ $X2=4.19 $Y2=2.83
r128 54 63 10.0555 $w=3.3e-07 $l=7.5e-08 $layer=POLY_cond $X=4.105 $Y=4.045
+ $X2=4.105 $Y2=3.97
r129 53 54 145.28 $w=1.7e-07 $l=1.7e-07 $layer=licon1_POLY $count=1 $X=4.105
+ $Y=3.975 $X2=4.105 $Y2=3.975
r130 51 62 3.70735 $w=2.5e-07 $l=1.7e-07 $layer=LI1_cond $X=4.105 $Y=4.155
+ $X2=3.935 $Y2=4.155
r131 51 53 11.7433 $w=1.68e-07 $l=1.8e-07 $layer=LI1_cond $X=4.105 $Y=4.155
+ $X2=4.105 $Y2=3.975
r132 49 63 146.009 $w=3.3e-07 $l=8.35e-07 $layer=POLY_cond $X=4.105 $Y=3.135
+ $X2=4.105 $Y2=3.97
r133 48 49 145.28 $w=1.7e-07 $l=1.7e-07 $layer=licon1_POLY $count=1 $X=4.105
+ $Y=3.135 $X2=4.105 $Y2=3.135
r134 46 57 6.81649 $w=1.7e-07 $l=1.20208e-07 $layer=LI1_cond $X=4.105 $Y=2.915
+ $X2=4.19 $Y2=2.83
r135 46 48 14.3529 $w=1.68e-07 $l=2.2e-07 $layer=LI1_cond $X=4.105 $Y=2.915
+ $X2=4.105 $Y2=3.135
r136 42 62 3.70735 $w=2.5e-07 $l=2.38642e-07 $layer=LI1_cond $X=4.1 $Y=4.325
+ $X2=3.935 $Y2=4.155
r137 42 44 14.3182 $w=3.28e-07 $l=4.1e-07 $layer=LI1_cond $X=4.1 $Y=4.325
+ $X2=4.1 $Y2=4.735
r138 40 62 2.76166 $w=1.7e-07 $l=8.5e-08 $layer=LI1_cond $X=3.935 $Y=4.24
+ $X2=3.935 $Y2=4.155
r139 40 41 34.5775 $w=1.68e-07 $l=5.3e-07 $layer=LI1_cond $X=3.935 $Y=4.24
+ $X2=3.405 $Y2=4.24
r140 36 41 17.4739 $w=1.11e-07 $l=2.03101e-07 $layer=LI1_cond $X=3.24 $Y=4.325
+ $X2=3.405 $Y2=4.24
r141 36 38 14.3182 $w=3.28e-07 $l=4.1e-07 $layer=LI1_cond $X=3.24 $Y=4.325
+ $X2=3.24 $Y2=4.735
r142 33 34 76.9149 $w=1.5e-07 $l=1.5e-07 $layer=POLY_cond $X=5.085 $Y=4.045
+ $X2=5.235 $Y2=4.045
r143 30 49 20.9834 $w=3.3e-07 $l=1.2e-07 $layer=POLY_cond $X=4.105 $Y=3.015
+ $X2=4.105 $Y2=3.135
r144 27 34 2.83073 $w=1.5e-07 $l=7.5e-08 $layer=POLY_cond $X=5.235 $Y=3.97
+ $X2=5.235 $Y2=4.045
r145 27 29 248.691 $w=1.5e-07 $l=4.85e-07 $layer=POLY_cond $X=5.235 $Y=3.97
+ $X2=5.235 $Y2=3.485
r146 26 29 241 $w=1.5e-07 $l=4.7e-07 $layer=POLY_cond $X=5.235 $Y=3.015
+ $X2=5.235 $Y2=3.485
r147 22 33 2.83073 $w=1.5e-07 $l=7.5e-08 $layer=POLY_cond $X=5.085 $Y=4.12
+ $X2=5.085 $Y2=4.045
r148 22 24 389.702 $w=1.5e-07 $l=7.6e-07 $layer=POLY_cond $X=5.085 $Y=4.12
+ $X2=5.085 $Y2=4.88
r149 21 32 20.4101 $w=1.5e-07 $l=7.5e-08 $layer=POLY_cond $X=4.855 $Y=4.045
+ $X2=4.78 $Y2=4.045
r150 20 33 38.4574 $w=1.5e-07 $l=7.5e-08 $layer=POLY_cond $X=5.01 $Y=4.045
+ $X2=5.085 $Y2=4.045
r151 20 21 79.4787 $w=1.5e-07 $l=1.55e-07 $layer=POLY_cond $X=5.01 $Y=4.045
+ $X2=4.855 $Y2=4.045
r152 19 31 20.4101 $w=1.5e-07 $l=7.5e-08 $layer=POLY_cond $X=4.855 $Y=2.94
+ $X2=4.78 $Y2=2.94
r153 18 26 26.9307 $w=1.5e-07 $l=1.06066e-07 $layer=POLY_cond $X=5.16 $Y=2.94
+ $X2=5.235 $Y2=3.015
r154 18 19 156.394 $w=1.5e-07 $l=3.05e-07 $layer=POLY_cond $X=5.16 $Y=2.94
+ $X2=4.855 $Y2=2.94
r155 15 32 5.30422 $w=1.5e-07 $l=7.5e-08 $layer=POLY_cond $X=4.78 $Y=3.97
+ $X2=4.78 $Y2=4.045
r156 15 17 248.691 $w=1.5e-07 $l=4.85e-07 $layer=POLY_cond $X=4.78 $Y=3.97
+ $X2=4.78 $Y2=3.485
r157 14 31 5.30422 $w=1.5e-07 $l=7.5e-08 $layer=POLY_cond $X=4.78 $Y=3.015
+ $X2=4.78 $Y2=2.94
r158 14 17 241 $w=1.5e-07 $l=4.7e-07 $layer=POLY_cond $X=4.78 $Y=3.015 $X2=4.78
+ $Y2=3.485
r159 13 54 22.122 $w=1.5e-07 $l=1.65e-07 $layer=POLY_cond $X=4.27 $Y=4.045
+ $X2=4.105 $Y2=4.045
r160 12 32 20.4101 $w=1.5e-07 $l=7.5e-08 $layer=POLY_cond $X=4.705 $Y=4.045
+ $X2=4.78 $Y2=4.045
r161 12 13 223.053 $w=1.5e-07 $l=4.35e-07 $layer=POLY_cond $X=4.705 $Y=4.045
+ $X2=4.27 $Y2=4.045
r162 11 30 32.1775 $w=1.5e-07 $l=1.98997e-07 $layer=POLY_cond $X=4.27 $Y=2.94
+ $X2=4.105 $Y2=3.015
r163 10 31 20.4101 $w=1.5e-07 $l=7.5e-08 $layer=POLY_cond $X=4.705 $Y=2.94
+ $X2=4.78 $Y2=2.94
r164 10 11 223.053 $w=1.5e-07 $l=4.35e-07 $layer=POLY_cond $X=4.705 $Y=2.94
+ $X2=4.27 $Y2=2.94
r165 3 60 300 $w=1.7e-07 $l=2.85745e-07 $layer=licon1_PDIFF $count=2 $X=4.43
+ $Y=1.56 $X2=4.555 $Y2=1.79
r166 2 44 91 $w=1.7e-07 $l=2.4e-07 $layer=licon1_NDIFF $count=2 $X=3.96 $Y=4.555
+ $X2=4.1 $Y2=4.735
r167 1 38 91 $w=1.7e-07 $l=2.4e-07 $layer=licon1_NDIFF $count=2 $X=3.1 $Y=4.555
+ $X2=3.24 $Y2=4.735
.ends

.subckt PM_SKY130_FD_SC_HD__LPFLOW_LSBUF_LH_ISOWELL_4%A_1032_911# 1 2 9 11 13 14
+ 18 23 25 26 30 35 36 38 40 45 46 51 52 55 59 62 65
c94 55 0 9.10198e-20 $X=5.455 $Y=3.235
c95 11 0 1.02426e-19 $X=5.255 $Y=1.41
r96 62 64 12.4159 $w=4.52e-07 $l=4.6e-07 $layer=LI1_cond $X=5.45 $Y=4.24
+ $X2=5.45 $Y2=4.7
r97 60 65 19.468 $w=3.59e-07 $l=1.45e-07 $layer=POLY_cond $X=5.92 $Y=4.195
+ $X2=5.775 $Y2=4.195
r98 59 60 145.28 $w=1.7e-07 $l=1.7e-07 $layer=licon1_POLY $count=1 $X=5.92
+ $Y=4.21 $X2=5.92 $Y2=4.21
r99 57 62 4.69682 $w=2.3e-07 $l=3.15e-07 $layer=LI1_cond $X=5.765 $Y=4.24
+ $X2=5.45 $Y2=4.24
r100 57 59 7.76646 $w=2.28e-07 $l=1.55e-07 $layer=LI1_cond $X=5.765 $Y=4.24
+ $X2=5.92 $Y2=4.24
r101 53 62 7.30083 $w=4.52e-07 $l=1.17473e-07 $layer=LI1_cond $X=5.455 $Y=4.125
+ $X2=5.45 $Y2=4.24
r102 53 55 51.9522 $w=1.88e-07 $l=8.9e-07 $layer=LI1_cond $X=5.455 $Y=4.125
+ $X2=5.455 $Y2=3.235
r103 43 45 515.33 $w=1.5e-07 $l=1.005e-06 $layer=POLY_cond $X=6.635 $Y=2.99
+ $X2=6.635 $Y2=1.985
r104 42 45 294.84 $w=1.5e-07 $l=5.75e-07 $layer=POLY_cond $X=6.635 $Y=1.41
+ $X2=6.635 $Y2=1.985
r105 38 42 20.86 $w=1.5e-07 $l=1.63e-07 $layer=POLY_cond $X=6.635 $Y=1.247
+ $X2=6.635 $Y2=1.41
r106 38 40 269.202 $w=1.5e-07 $l=5.25e-07 $layer=POLY_cond $X=6.635 $Y=1.085
+ $X2=6.635 $Y2=0.56
r107 37 52 20.4101 $w=1.5e-07 $l=7.5e-08 $layer=POLY_cond $X=6.28 $Y=3.065
+ $X2=6.205 $Y2=3.065
r108 36 43 26.9307 $w=1.5e-07 $l=1.06066e-07 $layer=POLY_cond $X=6.56 $Y=3.065
+ $X2=6.635 $Y2=2.99
r109 36 37 143.574 $w=1.5e-07 $l=2.8e-07 $layer=POLY_cond $X=6.56 $Y=3.065
+ $X2=6.28 $Y2=3.065
r110 33 52 5.30422 $w=1.5e-07 $l=7.5e-08 $layer=POLY_cond $X=6.205 $Y=2.99
+ $X2=6.205 $Y2=3.065
r111 33 35 515.33 $w=1.5e-07 $l=1.005e-06 $layer=POLY_cond $X=6.205 $Y=2.99
+ $X2=6.205 $Y2=1.985
r112 32 35 294.84 $w=1.5e-07 $l=5.75e-07 $layer=POLY_cond $X=6.205 $Y=1.41
+ $X2=6.205 $Y2=1.985
r113 28 38 76.3471 $w=3.25e-07 $l=4.3e-07 $layer=POLY_cond $X=6.205 $Y=1.247
+ $X2=6.635 $Y2=1.247
r114 28 32 20.86 $w=1.5e-07 $l=1.63e-07 $layer=POLY_cond $X=6.205 $Y=1.247
+ $X2=6.205 $Y2=1.41
r115 28 30 269.202 $w=1.5e-07 $l=5.25e-07 $layer=POLY_cond $X=6.205 $Y=1.085
+ $X2=6.205 $Y2=0.56
r116 27 51 5.30422 $w=1.5e-07 $l=7.5e-08 $layer=POLY_cond $X=5.85 $Y=3.065
+ $X2=5.775 $Y2=3.065
r117 26 52 20.4101 $w=1.5e-07 $l=7.5e-08 $layer=POLY_cond $X=6.13 $Y=3.065
+ $X2=6.205 $Y2=3.065
r118 26 27 143.574 $w=1.5e-07 $l=2.8e-07 $layer=POLY_cond $X=6.13 $Y=3.065
+ $X2=5.85 $Y2=3.065
r119 25 65 23.2387 $w=1.5e-07 $l=1.8e-07 $layer=POLY_cond $X=5.775 $Y=4.015
+ $X2=5.775 $Y2=4.195
r120 24 51 20.4101 $w=1.5e-07 $l=7.5e-08 $layer=POLY_cond $X=5.775 $Y=3.14
+ $X2=5.775 $Y2=3.065
r121 24 25 448.67 $w=1.5e-07 $l=8.75e-07 $layer=POLY_cond $X=5.775 $Y=3.14
+ $X2=5.775 $Y2=4.015
r122 21 51 20.4101 $w=1.5e-07 $l=7.5e-08 $layer=POLY_cond $X=5.775 $Y=2.99
+ $X2=5.775 $Y2=3.065
r123 21 23 515.33 $w=1.5e-07 $l=1.005e-06 $layer=POLY_cond $X=5.775 $Y=2.99
+ $X2=5.775 $Y2=1.985
r124 20 23 294.84 $w=1.5e-07 $l=5.75e-07 $layer=POLY_cond $X=5.775 $Y=1.41
+ $X2=5.775 $Y2=1.985
r125 16 28 76.3471 $w=3.25e-07 $l=4.3e-07 $layer=POLY_cond $X=5.775 $Y=1.247
+ $X2=6.205 $Y2=1.247
r126 16 20 20.86 $w=1.5e-07 $l=1.63e-07 $layer=POLY_cond $X=5.775 $Y=1.247
+ $X2=5.775 $Y2=1.41
r127 16 18 269.202 $w=1.5e-07 $l=5.25e-07 $layer=POLY_cond $X=5.775 $Y=1.085
+ $X2=5.775 $Y2=0.56
r128 15 46 4.85217 $w=3.25e-07 $l=7.5e-08 $layer=POLY_cond $X=5.33 $Y=1.247
+ $X2=5.255 $Y2=1.247
r129 14 16 13.3164 $w=3.25e-07 $l=7.5e-08 $layer=POLY_cond $X=5.7 $Y=1.247
+ $X2=5.775 $Y2=1.247
r130 14 15 65.694 $w=3.25e-07 $l=3.7e-07 $layer=POLY_cond $X=5.7 $Y=1.247
+ $X2=5.33 $Y2=1.247
r131 11 46 36.6911 $w=1.5e-07 $l=1.63e-07 $layer=POLY_cond $X=5.255 $Y=1.41
+ $X2=5.255 $Y2=1.247
r132 11 13 184.767 $w=1.5e-07 $l=5.75e-07 $layer=POLY_cond $X=5.255 $Y=1.41
+ $X2=5.255 $Y2=1.985
r133 7 46 36.6911 $w=1.5e-07 $l=1.62e-07 $layer=POLY_cond $X=5.255 $Y=1.085
+ $X2=5.255 $Y2=1.247
r134 7 9 269.202 $w=1.5e-07 $l=5.25e-07 $layer=POLY_cond $X=5.255 $Y=1.085
+ $X2=5.255 $Y2=0.56
r135 2 55 300 $w=1.7e-07 $l=2.05061e-07 $layer=licon1_PDIFF $count=2 $X=5.31
+ $Y=3.09 $X2=5.455 $Y2=3.235
r136 1 64 91 $w=1.7e-07 $l=2.03286e-07 $layer=licon1_NDIFF $count=2 $X=5.16
+ $Y=4.555 $X2=5.3 $Y2=4.7
.ends

.subckt PM_SKY130_FD_SC_HD__LPFLOW_LSBUF_LH_ISOWELL_4%VPWR 1 2 3 4 15 19 23 27
+ 30 32 33 35 36 37 44 54 55 62
c99 30 0 1.90316e-19 $X=5.005 $Y=2.72
r100 54 55 9.3 $w=1.7e-07 $l=1.7e-07 $layer=mcon $count=1 $X=7.13 $Y=2.72
+ $X2=7.13 $Y2=2.72
r101 52 55 0.130889 $w=4.8e-07 $l=4.6e-07 $layer=MET1_cond $X=6.67 $Y=2.72
+ $X2=7.13 $Y2=2.72
r102 51 52 4.65 $w=1.7e-07 $l=3.4e-07 $layer=mcon $count=2 $X=6.67 $Y=2.72
+ $X2=6.67 $Y2=2.72
r103 49 52 0.261778 $w=4.8e-07 $l=9.2e-07 $layer=MET1_cond $X=5.75 $Y=2.72
+ $X2=6.67 $Y2=2.72
r104 49 62 0.611765 $w=4.8e-07 $l=2.15e-06 $layer=MET1_cond $X=5.75 $Y=2.72
+ $X2=3.6 $Y2=2.72
r105 48 49 4.65 $w=1.7e-07 $l=3.4e-07 $layer=mcon $count=2 $X=5.75 $Y=2.72
+ $X2=5.75 $Y2=2.72
r106 44 45 4.65 $w=1.7e-07 $l=3.4e-07 $layer=mcon $count=2 $X=1.61 $Y=2.72
+ $X2=1.61 $Y2=2.72
r107 41 45 0.392668 $w=4.8e-07 $l=1.38e-06 $layer=MET1_cond $X=0.23 $Y=2.72
+ $X2=1.61 $Y2=2.72
r108 40 44 90.0321 $w=1.68e-07 $l=1.38e-06 $layer=LI1_cond $X=0.23 $Y=2.72
+ $X2=1.61 $Y2=2.72
r109 40 41 4.65 $w=1.7e-07 $l=3.4e-07 $layer=mcon $count=2 $X=0.23 $Y=2.72
+ $X2=0.23 $Y2=2.72
r110 37 62 0.13658 $w=4.8e-07 $l=4.8e-07 $layer=MET1_cond $X=3.12 $Y=2.72
+ $X2=3.6 $Y2=2.72
r111 37 45 0.429658 $w=4.8e-07 $l=1.51e-06 $layer=MET1_cond $X=3.12 $Y=2.72
+ $X2=1.61 $Y2=2.72
r112 35 51 5.54545 $w=1.68e-07 $l=8.5e-08 $layer=LI1_cond $X=6.755 $Y=2.72
+ $X2=6.67 $Y2=2.72
r113 35 36 5.41628 $w=1.7e-07 $l=9e-08 $layer=LI1_cond $X=6.755 $Y=2.72
+ $X2=6.845 $Y2=2.72
r114 34 54 12.7219 $w=1.68e-07 $l=1.95e-07 $layer=LI1_cond $X=6.935 $Y=2.72
+ $X2=7.13 $Y2=2.72
r115 34 36 5.41628 $w=1.7e-07 $l=9e-08 $layer=LI1_cond $X=6.935 $Y=2.72
+ $X2=6.845 $Y2=2.72
r116 32 48 10.1123 $w=1.68e-07 $l=1.55e-07 $layer=LI1_cond $X=5.905 $Y=2.72
+ $X2=5.75 $Y2=2.72
r117 32 33 5.16603 $w=1.7e-07 $l=8.5e-08 $layer=LI1_cond $X=5.905 $Y=2.72
+ $X2=5.99 $Y2=2.72
r118 31 51 38.8182 $w=1.68e-07 $l=5.95e-07 $layer=LI1_cond $X=6.075 $Y=2.72
+ $X2=6.67 $Y2=2.72
r119 31 33 5.16603 $w=1.7e-07 $l=8.5e-08 $layer=LI1_cond $X=6.075 $Y=2.72
+ $X2=5.99 $Y2=2.72
r120 29 48 41.1016 $w=1.68e-07 $l=6.3e-07 $layer=LI1_cond $X=5.12 $Y=2.72
+ $X2=5.75 $Y2=2.72
r121 29 30 2.45049 $w=1.7e-07 $l=1.15e-07 $layer=LI1_cond $X=5.12 $Y=2.72
+ $X2=5.005 $Y2=2.72
r122 25 36 1.13756 $w=1.8e-07 $l=8.5e-08 $layer=LI1_cond $X=6.845 $Y=2.635
+ $X2=6.845 $Y2=2.72
r123 25 27 52.0657 $w=1.78e-07 $l=8.45e-07 $layer=LI1_cond $X=6.845 $Y=2.635
+ $X2=6.845 $Y2=1.79
r124 21 33 1.34256 $w=1.7e-07 $l=8.5e-08 $layer=LI1_cond $X=5.99 $Y=2.635
+ $X2=5.99 $Y2=2.72
r125 21 23 55.1283 $w=1.68e-07 $l=8.45e-07 $layer=LI1_cond $X=5.99 $Y=2.635
+ $X2=5.99 $Y2=1.79
r126 17 30 3.98977 $w=2.3e-07 $l=8.5e-08 $layer=LI1_cond $X=5.005 $Y=2.805
+ $X2=5.005 $Y2=2.72
r127 17 19 21.5457 $w=2.28e-07 $l=4.3e-07 $layer=LI1_cond $X=5.005 $Y=2.805
+ $X2=5.005 $Y2=3.235
r128 13 30 3.98977 $w=2.3e-07 $l=8.5e-08 $layer=LI1_cond $X=5.005 $Y=2.635
+ $X2=5.005 $Y2=2.72
r129 13 15 42.3398 $w=2.28e-07 $l=8.45e-07 $layer=LI1_cond $X=5.005 $Y=2.635
+ $X2=5.005 $Y2=1.79
r130 4 27 300 $w=1.7e-07 $l=3.68409e-07 $layer=licon1_PDIFF $count=2 $X=6.71
+ $Y=1.485 $X2=6.85 $Y2=1.79
r131 3 23 300 $w=1.7e-07 $l=3.68409e-07 $layer=licon1_PDIFF $count=2 $X=5.85
+ $Y=1.485 $X2=5.99 $Y2=1.79
r132 2 15 300 $w=1.7e-07 $l=2.95635e-07 $layer=licon1_PDIFF $count=2 $X=4.855
+ $Y=1.56 $X2=5.005 $Y2=1.79
r133 1 19 300 $w=1.7e-07 $l=2.10357e-07 $layer=licon1_PDIFF $count=2 $X=4.855
+ $Y=3.09 $X2=5.005 $Y2=3.235
.ends

.subckt PM_SKY130_FD_SC_HD__LPFLOW_LSBUF_LH_ISOWELL_4%X 1 2 3 4 15 17 21 25 27
+ 28 29 33 35
r43 33 35 0.628605 $w=2.73e-07 $l=1.5e-08 $layer=LI1_cond $X=5.497 $Y=1.41
+ $X2=5.497 $Y2=1.425
r44 29 33 1.51957 $w=2.81e-07 $l=4.05586e-08 $layer=LI1_cond $X=5.485 $Y=1.375
+ $X2=5.497 $Y2=1.41
r45 29 38 13.8293 $w=2.73e-07 $l=3.3e-07 $layer=LI1_cond $X=5.497 $Y=1.46
+ $X2=5.497 $Y2=1.79
r46 29 35 1.46675 $w=2.73e-07 $l=3.5e-08 $layer=LI1_cond $X=5.497 $Y=1.46
+ $X2=5.497 $Y2=1.425
r47 23 27 6.43939 $w=2.47e-07 $l=1.75442e-07 $layer=LI1_cond $X=6.445 $Y=1.085
+ $X2=6.417 $Y2=1.247
r48 23 25 34.8352 $w=2.18e-07 $l=6.65e-07 $layer=LI1_cond $X=6.445 $Y=1.085
+ $X2=6.445 $Y2=0.42
r49 19 27 6.43939 $w=2.47e-07 $l=1.63e-07 $layer=LI1_cond $X=6.417 $Y=1.41
+ $X2=6.417 $Y2=1.247
r50 19 21 15.9247 $w=2.73e-07 $l=3.8e-07 $layer=LI1_cond $X=6.417 $Y=1.41
+ $X2=6.417 $Y2=1.79
r51 18 29 5.5573 $w=2.81e-07 $l=1.28e-07 $layer=LI1_cond $X=5.485 $Y=1.247
+ $X2=5.485 $Y2=1.375
r52 18 28 8.33594 $w=2.81e-07 $l=1.92e-07 $layer=LI1_cond $X=5.485 $Y=1.247
+ $X2=5.485 $Y2=1.055
r53 17 27 0.38261 $w=3.25e-07 $l=1.37e-07 $layer=LI1_cond $X=6.28 $Y=1.247
+ $X2=6.417 $Y2=1.247
r54 17 18 22.8716 $w=3.23e-07 $l=6.45e-07 $layer=LI1_cond $X=6.28 $Y=1.247
+ $X2=5.635 $Y2=1.247
r55 13 28 9.21519 $w=3e-07 $l=2.25e-07 $layer=LI1_cond $X=5.485 $Y=0.83
+ $X2=5.485 $Y2=1.055
r56 13 15 15.7501 $w=2.98e-07 $l=4.1e-07 $layer=LI1_cond $X=5.485 $Y=0.83
+ $X2=5.485 $Y2=0.42
r57 4 21 300 $w=1.7e-07 $l=3.68409e-07 $layer=licon1_PDIFF $count=2 $X=6.28
+ $Y=1.485 $X2=6.42 $Y2=1.79
r58 3 38 300 $w=1.7e-07 $l=3.68409e-07 $layer=licon1_PDIFF $count=2 $X=5.33
+ $Y=1.485 $X2=5.47 $Y2=1.79
r59 2 25 91 $w=1.7e-07 $l=2.45204e-07 $layer=licon1_NDIFF $count=2 $X=6.28
+ $Y=0.235 $X2=6.42 $Y2=0.42
r60 1 15 91 $w=1.7e-07 $l=2.45204e-07 $layer=licon1_NDIFF $count=2 $X=5.33
+ $Y=0.235 $X2=5.47 $Y2=0.42
.ends

.subckt PM_SKY130_FD_SC_HD__LPFLOW_LSBUF_LH_ISOWELL_4%VGND 1 2 3 4 5 6 7 8 9 30
+ 34 38 42 46 50 54 58 62 65 66 68 69 71 72 74 75 77 78 80 81 83 84 85 86 89 111
+ 123 124 133 134 137 140
c130 54 0 7.6696e-20 $X=5 $Y=0.42
r131 140 141 9.3 $w=1.7e-07 $l=1.7e-07 $layer=mcon $count=1 $X=4.83 $Y=5.44
+ $X2=4.83 $Y2=5.44
r132 137 138 3.72 $w=1.7e-07 $l=4.25e-07 $layer=mcon $count=2 $X=2.07 $Y=0
+ $X2=2.07 $Y2=0
r133 133 134 9.3 $w=1.7e-07 $l=1.7e-07 $layer=mcon $count=1 $X=7.13 $Y=0
+ $X2=7.13 $Y2=0
r134 131 134 0.130889 $w=4.8e-07 $l=4.6e-07 $layer=MET1_cond $X=6.67 $Y=0
+ $X2=7.13 $Y2=0
r135 130 131 4.65 $w=1.7e-07 $l=3.4e-07 $layer=mcon $count=2 $X=6.67 $Y=0
+ $X2=6.67 $Y2=0
r136 128 131 0.261778 $w=4.8e-07 $l=9.2e-07 $layer=MET1_cond $X=5.75 $Y=0
+ $X2=6.67 $Y2=0
r137 127 128 4.65 $w=1.7e-07 $l=3.4e-07 $layer=mcon $count=2 $X=5.75 $Y=0
+ $X2=5.75 $Y2=0
r138 123 124 3.72 $w=1.7e-07 $l=4.25e-07 $layer=mcon $count=2 $X=7.13 $Y=5.44
+ $X2=7.13 $Y2=5.44
r139 121 124 0.523557 $w=4.8e-07 $l=1.84e-06 $layer=MET1_cond $X=5.29 $Y=5.44
+ $X2=7.13 $Y2=5.44
r140 121 141 0.130889 $w=4.8e-07 $l=4.6e-07 $layer=MET1_cond $X=5.29 $Y=5.44
+ $X2=4.83 $Y2=5.44
r141 120 123 120.043 $w=1.68e-07 $l=1.84e-06 $layer=LI1_cond $X=5.29 $Y=5.44
+ $X2=7.13 $Y2=5.44
r142 120 121 3.72 $w=1.7e-07 $l=4.25e-07 $layer=mcon $count=2 $X=5.29 $Y=5.44
+ $X2=5.29 $Y2=5.44
r143 118 140 11.4275 $w=1.7e-07 $l=2.55e-07 $layer=LI1_cond $X=4.955 $Y=5.44
+ $X2=4.7 $Y2=5.44
r144 118 120 21.8556 $w=1.68e-07 $l=3.35e-07 $layer=LI1_cond $X=4.955 $Y=5.44
+ $X2=5.29 $Y2=5.44
r145 117 128 0.261778 $w=4.8e-07 $l=9.2e-07 $layer=MET1_cond $X=4.83 $Y=0
+ $X2=5.75 $Y2=0
r146 116 117 4.65 $w=1.7e-07 $l=3.4e-07 $layer=mcon $count=2 $X=4.83 $Y=0
+ $X2=4.83 $Y2=0
r147 114 141 0.130889 $w=4.8e-07 $l=4.6e-07 $layer=MET1_cond $X=4.37 $Y=5.44
+ $X2=4.83 $Y2=5.44
r148 113 114 4.65 $w=1.7e-07 $l=3.4e-07 $layer=mcon $count=2 $X=4.37 $Y=5.44
+ $X2=4.37 $Y2=5.44
r149 111 140 11.4275 $w=1.7e-07 $l=2.55e-07 $layer=LI1_cond $X=4.445 $Y=5.44
+ $X2=4.7 $Y2=5.44
r150 111 113 4.89305 $w=1.68e-07 $l=7.5e-08 $layer=LI1_cond $X=4.445 $Y=5.44
+ $X2=4.37 $Y2=5.44
r151 110 117 0.261778 $w=4.8e-07 $l=9.2e-07 $layer=MET1_cond $X=3.91 $Y=0
+ $X2=4.83 $Y2=0
r152 109 110 4.65 $w=1.7e-07 $l=3.4e-07 $layer=mcon $count=2 $X=3.91 $Y=0
+ $X2=3.91 $Y2=0
r153 107 114 0.261778 $w=4.8e-07 $l=9.2e-07 $layer=MET1_cond $X=3.45 $Y=5.44
+ $X2=4.37 $Y2=5.44
r154 106 107 4.65 $w=1.7e-07 $l=3.4e-07 $layer=mcon $count=2 $X=3.45 $Y=5.44
+ $X2=3.45 $Y2=5.44
r155 104 110 0.261778 $w=4.8e-07 $l=9.2e-07 $layer=MET1_cond $X=2.99 $Y=0
+ $X2=3.91 $Y2=0
r156 104 138 0.261778 $w=4.8e-07 $l=9.2e-07 $layer=MET1_cond $X=2.99 $Y=0
+ $X2=2.07 $Y2=0
r157 103 104 4.65 $w=1.7e-07 $l=3.4e-07 $layer=mcon $count=2 $X=2.99 $Y=0
+ $X2=2.99 $Y2=0
r158 101 137 8.61065 $w=1.7e-07 $l=1.65e-07 $layer=LI1_cond $X=2.35 $Y=0
+ $X2=2.185 $Y2=0
r159 101 103 41.754 $w=1.68e-07 $l=6.4e-07 $layer=LI1_cond $X=2.35 $Y=0 $X2=2.99
+ $Y2=0
r160 100 107 0.261778 $w=4.8e-07 $l=9.2e-07 $layer=MET1_cond $X=2.53 $Y=5.44
+ $X2=3.45 $Y2=5.44
r161 99 100 3.1 $w=1.7e-07 $l=5.1e-07 $layer=mcon $count=3 $X=2.53 $Y=5.44
+ $X2=2.53 $Y2=5.44
r162 95 99 150.053 $w=1.68e-07 $l=2.3e-06 $layer=LI1_cond $X=0.23 $Y=5.44
+ $X2=2.53 $Y2=5.44
r163 95 96 3.1 $w=1.7e-07 $l=5.1e-07 $layer=mcon $count=3 $X=0.23 $Y=5.44
+ $X2=0.23 $Y2=5.44
r164 91 92 3.72 $w=1.7e-07 $l=4.25e-07 $layer=mcon $count=2 $X=0.23 $Y=0
+ $X2=0.23 $Y2=0
r165 89 137 8.61065 $w=1.7e-07 $l=1.65e-07 $layer=LI1_cond $X=2.02 $Y=0
+ $X2=2.185 $Y2=0
r166 89 91 116.781 $w=1.68e-07 $l=1.79e-06 $layer=LI1_cond $X=2.02 $Y=0 $X2=0.23
+ $Y2=0
r167 86 138 0.448153 $w=4.8e-07 $l=1.575e-06 $layer=MET1_cond $X=0.495 $Y=0
+ $X2=2.07 $Y2=0
r168 86 92 0.0754035 $w=4.8e-07 $l=2.65e-07 $layer=MET1_cond $X=0.495 $Y=0
+ $X2=0.23 $Y2=0
r169 85 100 0.606074 $w=4.8e-07 $l=2.13e-06 $layer=MET1_cond $X=0.4 $Y=5.44
+ $X2=2.53 $Y2=5.44
r170 85 96 0.0483721 $w=4.8e-07 $l=1.7e-07 $layer=MET1_cond $X=0.4 $Y=5.44
+ $X2=0.23 $Y2=5.44
r171 83 130 5.54545 $w=1.68e-07 $l=8.5e-08 $layer=LI1_cond $X=6.755 $Y=0
+ $X2=6.67 $Y2=0
r172 83 84 7.02821 $w=1.7e-07 $l=1.25e-07 $layer=LI1_cond $X=6.755 $Y=0 $X2=6.88
+ $Y2=0
r173 82 133 8.15508 $w=1.68e-07 $l=1.25e-07 $layer=LI1_cond $X=7.005 $Y=0
+ $X2=7.13 $Y2=0
r174 82 84 7.02821 $w=1.7e-07 $l=1.25e-07 $layer=LI1_cond $X=7.005 $Y=0 $X2=6.88
+ $Y2=0
r175 80 127 4.89305 $w=1.68e-07 $l=7.5e-08 $layer=LI1_cond $X=5.825 $Y=0
+ $X2=5.75 $Y2=0
r176 80 81 8.61065 $w=1.7e-07 $l=1.65e-07 $layer=LI1_cond $X=5.825 $Y=0 $X2=5.99
+ $Y2=0
r177 79 130 33.5989 $w=1.68e-07 $l=5.15e-07 $layer=LI1_cond $X=6.155 $Y=0
+ $X2=6.67 $Y2=0
r178 79 81 8.61065 $w=1.7e-07 $l=1.65e-07 $layer=LI1_cond $X=6.155 $Y=0 $X2=5.99
+ $Y2=0
r179 77 116 0.326203 $w=1.68e-07 $l=5e-09 $layer=LI1_cond $X=4.835 $Y=0 $X2=4.83
+ $Y2=0
r180 77 78 8.61065 $w=1.7e-07 $l=1.65e-07 $layer=LI1_cond $X=4.835 $Y=0 $X2=5
+ $Y2=0
r181 76 127 38.1658 $w=1.68e-07 $l=5.85e-07 $layer=LI1_cond $X=5.165 $Y=0
+ $X2=5.75 $Y2=0
r182 76 78 8.61065 $w=1.7e-07 $l=1.65e-07 $layer=LI1_cond $X=5.165 $Y=0 $X2=5
+ $Y2=0
r183 74 109 4.24064 $w=1.68e-07 $l=6.5e-08 $layer=LI1_cond $X=3.975 $Y=0
+ $X2=3.91 $Y2=0
r184 74 75 8.61065 $w=1.7e-07 $l=1.65e-07 $layer=LI1_cond $X=3.975 $Y=0 $X2=4.14
+ $Y2=0
r185 73 116 34.2513 $w=1.68e-07 $l=5.25e-07 $layer=LI1_cond $X=4.305 $Y=0
+ $X2=4.83 $Y2=0
r186 73 75 8.61065 $w=1.7e-07 $l=1.65e-07 $layer=LI1_cond $X=4.305 $Y=0 $X2=4.14
+ $Y2=0
r187 71 106 8.15508 $w=1.68e-07 $l=1.25e-07 $layer=LI1_cond $X=3.575 $Y=5.44
+ $X2=3.45 $Y2=5.44
r188 71 72 5.66127 $w=1.7e-07 $l=9.5e-08 $layer=LI1_cond $X=3.575 $Y=5.44
+ $X2=3.67 $Y2=5.44
r189 70 113 39.4706 $w=1.68e-07 $l=6.05e-07 $layer=LI1_cond $X=3.765 $Y=5.44
+ $X2=4.37 $Y2=5.44
r190 70 72 5.66127 $w=1.7e-07 $l=9.5e-08 $layer=LI1_cond $X=3.765 $Y=5.44
+ $X2=3.67 $Y2=5.44
r191 68 103 8.15508 $w=1.68e-07 $l=1.25e-07 $layer=LI1_cond $X=3.115 $Y=0
+ $X2=2.99 $Y2=0